version 3
run General-0-20260428-15:06:00-6776
attr configname General
attr datetime 20260428-15:06:00
attr datetimef 20260428-150600
attr experiment General
attr inifile C:/OmnetDos/test_omnet/simulations/omnetpp.ini
attr iterationvars "$pathlosstype=\"TrueRays\""
attr iterationvarsd pathlosstype=TrueRays
attr iterationvarsf pathlosstype=TrueRays-
attr measurement "$pathlosstype=\"TrueRays\""
attr network wireless3.simulations.Wireless3
attr processid 6776
attr repetition 0
attr replication #0
attr resultdir results
attr runnumber 0
attr seedset 0
itervar pathlosstype "\"TrueRays\""
config image-path C:/OmnetDos/inet4.4/images;C:/OmnetDos/flora-1.1.0/images
config network wireless3.simulations.Wireless3
config sim-time-limit 600s
config simtime-resolution -11
config *.gateway.mobility.typename StationaryMobility
config *.gateway.mobility.initialX 250m
config *.gateway.mobility.initialY 150m
config *.gateway.mobility.initialZ 0m
config *.gateway.mobility.initFromDisplayString false
config *.networkServer.mobility.typename StationaryMobility
config *.networkServer.mobility.initialX 400m
config *.networkServer.mobility.initialY 50m
config *.networkServer.mobility.initialZ 0m
config *.networkServer.mobility.initFromDisplayString false
config *.host[0].mobility.initialX 1048m
config *.host[0].mobility.initialY 439m
config *.host[0].mobility.initialZ 0m
config *.host[1].mobility.initialX 846m
config *.host[1].mobility.initialY 368m
config *.host[1].mobility.initialZ 0m
config *.host[2].mobility.initialX 755m
config *.host[2].mobility.initialY 320m
config *.host[2].mobility.initialZ 0m
config *.host[3].mobility.initialX 701m
config *.host[3].mobility.initialY 225m
config *.host[3].mobility.initialZ 0m
config *.host[4].mobility.initialX 480m
config *.host[4].mobility.initialY 372m
config *.host[4].mobility.initialZ 0m
config *.host[5].mobility.initialX 616m
config *.host[5].mobility.initialY 273m
config *.host[5].mobility.initialZ 0m
config *.host[6].mobility.initialX 478m
config *.host[6].mobility.initialY 294m
config *.host[6].mobility.initialZ 0m
config *.host[7].mobility.initialX 548m
config *.host[7].mobility.initialY 242m
config *.host[7].mobility.initialZ 0m
config *.host[8].mobility.initialX 631m
config *.host[8].mobility.initialY 199m
config *.host[8].mobility.initialZ 0m
config *.host[9].mobility.initialX 580m
config *.host[9].mobility.initialY 134m
config *.host[9].mobility.initialZ 0m
config *.host[10].mobility.initialX 419m
config *.host[10].mobility.initialY 283m
config *.host[10].mobility.initialZ 0m
config *.host[11].mobility.initialX 470m
config *.host[11].mobility.initialY 212m
config *.host[11].mobility.initialZ 0m
config *.host[12].mobility.initialX 375m
config *.host[12].mobility.initialY 175m
config *.host[12].mobility.initialZ 0m
config *.host[13].mobility.initialX 331m
config *.host[13].mobility.initialY 259m
config *.host[13].mobility.initialZ 0m
config *.host[14].mobility.initialX 533m
config *.host[14].mobility.initialY 27m
config *.host[14].mobility.initialZ 0m
config *.host[15].mobility.initialX 304m
config *.host[15].mobility.initialY 168m
config *.host[15].mobility.initialZ 0m
config *.host[16].mobility.initialX 289m
config *.host[16].mobility.initialY 198m
config *.host[16].mobility.initialZ 0m
config *.host[17].mobility.initialX 388m
config *.host[17].mobility.initialY 19m
config *.host[17].mobility.initialZ 0m
config *.host[18].mobility.initialX 239m
config *.host[18].mobility.initialY 153m
config *.host[18].mobility.initialZ 0m
config *.host[19].mobility.initialX 193m
config *.host[19].mobility.initialY 163m
config *.host[19].mobility.initialZ 0m
config *.numHost 20
config *.width 1198m
config *.height 494m
config *.host[*].numApps 1
config *.host[*].app[0].typename SimpleLoRaApp
config *.host[*].app[0].dataSize 10B
config *.host[*].app[0].initialLoRaTP 14dBm
config *.host[*].app[0].initialLoRaCF 915MHz
config *.host[*].app[0].initialLoRaBW 125kHz
config *.host[*].app[0].initialLoRaSF 10
config *.host[*].app[0].initialLoRaCR 4
config *.host[*].app[0].initialUseHeader true
config *.host[*].app[0].evaluateADRinNode false
config *.host[*].app[0].destNodeIds "\"-1\""
config *.host[*].app[0].nextHopId -1
config *.host[0].app[0].destNodeIds "\"1 2\""
config *.host[0].app[0].srcNodeId 0
config *.host[0].app[0].nextHopId 1
config *.host[0].app[0].timeToFirstPacket exponential(5s)
config *.host[0].app[0].timeToNextPacket exponential(10s)
config *.host[1].app[0].destNodeIds "\"0 3\""
config *.host[1].app[0].srcNodeId 1
config *.host[1].app[0].nextHopId 3
config *.host[1].app[0].timeToFirstPacket exponential(5s)
config *.host[1].app[0].timeToNextPacket exponential(10s)
config *.host[2].app[0].destNodeIds "\"0 5\""
config *.host[2].app[0].srcNodeId 2
config *.host[2].app[0].nextHopId -1
config *.host[2].app[0].timeToFirstPacket exponential(5s)
config *.host[2].app[0].timeToNextPacket exponential(10s)
config *.host[3].app[0].destNodeIds "\"1 4\""
config *.host[3].app[0].srcNodeId 3
config *.host[3].app[0].nextHopId 4
config *.host[3].app[0].timeToFirstPacket exponential(5s)
config *.host[3].app[0].timeToNextPacket exponential(10s)
config *.host[4].app[0].destNodeIds "\"3 5\""
config *.host[4].app[0].srcNodeId 4
config *.host[4].app[0].nextHopId 5
config *.host[4].app[0].timeToFirstPacket exponential(5s)
config *.host[4].app[0].timeToNextPacket exponential(10s)
config *.host[5].app[0].destNodeIds "\"4 2 7 11\""
config *.host[5].app[0].srcNodeId 5
config *.host[5].app[0].nextHopId 2
config *.host[5].app[0].timeToFirstPacket exponential(5s)
config *.host[5].app[0].timeToNextPacket exponential(10s)
config *.host[6].app[0].destNodeIds "\"7\""
config *.host[6].app[0].srcNodeId 6
config *.host[6].app[0].nextHopId 7
config *.host[6].app[0].timeToFirstPacket exponential(5s)
config *.host[6].app[0].timeToNextPacket exponential(10s)
config *.host[7].app[0].destNodeIds "\"6 5 8\""
config *.host[7].app[0].srcNodeId 7
config *.host[7].app[0].nextHopId 5
config *.host[7].app[0].timeToFirstPacket exponential(5s)
config *.host[7].app[0].timeToNextPacket exponential(10s)
config *.host[8].app[0].destNodeIds "\"7\""
config *.host[8].app[0].srcNodeId 8
config *.host[8].app[0].nextHopId 7
config *.host[8].app[0].timeToFirstPacket exponential(5s)
config *.host[8].app[0].timeToNextPacket exponential(10s)
config *.host[9].app[0].destNodeIds "\"11 10\""
config *.host[9].app[0].srcNodeId 9
config *.host[9].app[0].nextHopId 11
config *.host[9].app[0].timeToFirstPacket exponential(5s)
config *.host[9].app[0].timeToNextPacket exponential(10s)
config *.host[10].app[0].destNodeIds "\"9\""
config *.host[10].app[0].srcNodeId 10
config *.host[10].app[0].nextHopId 9
config *.host[10].app[0].timeToFirstPacket exponential(5s)
config *.host[10].app[0].timeToNextPacket exponential(10s)
config *.host[11].app[0].destNodeIds "\"9 5 12\""
config *.host[11].app[0].srcNodeId 11
config *.host[11].app[0].nextHopId 5
config *.host[11].app[0].timeToFirstPacket exponential(5s)
config *.host[11].app[0].timeToNextPacket exponential(10s)
config *.host[12].app[0].destNodeIds "\"11 13 15\""
config *.host[12].app[0].srcNodeId 12
config *.host[12].app[0].nextHopId 11
config *.host[12].app[0].timeToFirstPacket exponential(5s)
config *.host[12].app[0].timeToNextPacket exponential(10s)
config *.host[13].app[0].destNodeIds "\"12 14\""
config *.host[13].app[0].srcNodeId 13
config *.host[13].app[0].nextHopId 12
config *.host[13].app[0].timeToFirstPacket exponential(5s)
config *.host[13].app[0].timeToNextPacket exponential(10s)
config *.host[14].app[0].destNodeIds "\"13\""
config *.host[14].app[0].srcNodeId 14
config *.host[14].app[0].nextHopId 13
config *.host[14].app[0].timeToFirstPacket exponential(5s)
config *.host[14].app[0].timeToNextPacket exponential(10s)
config *.host[15].app[0].destNodeIds "\"12 16 18\""
config *.host[15].app[0].srcNodeId 15
config *.host[15].app[0].nextHopId 12
config *.host[15].app[0].timeToFirstPacket exponential(5s)
config *.host[15].app[0].timeToNextPacket exponential(10s)
config *.host[16].app[0].destNodeIds "\"15 17\""
config *.host[16].app[0].srcNodeId 16
config *.host[16].app[0].nextHopId 15
config *.host[16].app[0].timeToFirstPacket exponential(5s)
config *.host[16].app[0].timeToNextPacket exponential(10s)
config *.host[17].app[0].destNodeIds "\"16\""
config *.host[17].app[0].srcNodeId 17
config *.host[17].app[0].nextHopId 16
config *.host[17].app[0].timeToFirstPacket exponential(5s)
config *.host[17].app[0].timeToNextPacket exponential(10s)
config *.host[18].app[0].destNodeIds "\"15 19\""
config *.host[18].app[0].srcNodeId 18
config *.host[18].app[0].nextHopId 15
config *.host[18].app[0].timeToFirstPacket exponential(5s)
config *.host[18].app[0].timeToNextPacket exponential(10s)
config *.host[19].app[0].destNodeIds "\"18\""
config *.host[19].app[0].srcNodeId 19
config *.host[19].app[0].nextHopId 18
config *.host[19].app[0].timeToFirstPacket exponential(5s)
config *.host[19].app[0].timeToNextPacket exponential(10s)
config *.radioMedium.pathLoss.frequency 915000000
config *.host[*].mobility.typename StationaryMobility
config *.host[*].mobility.initFromDisplayString false
config *.host[*].gatewayX 250
config *.host[*].gatewayY 150
config *.host[*].maxGatewayDistance 2000
config *.host[*].app[0].numberOfPacketsToSend 0
config *.radioMedium.typename LoRaMedium
config *.radioMedium.pathLoss.typename TrueRays
config *.radioMedium.maxTransmissionDuration 100s
config *.radioMedium.mediumLimitCache.maxTransmissionDuration 100s
config *.radioMedium.backgroundNoise.typename IsotropicScalarBackgroundNoise
config *.radioMedium.backgroundNoise.power -117dBm
config *.radioMedium.pathLoss.width_tunnel 4
config *.radioMedium.pathLoss.height_tunnel 4
config *.radioMedium.pathLoss.gain_tx 1.5849
config *.radioMedium.pathLoss.gain_tx_tr 0.2
config *.radioMedium.pathLoss.power_tx 2.5
config *.radioMedium.pathLoss.p_tx_radio 0.025119W
config *.host[*].LoRaNic.queue.typename DropTailQueue
config *.host[*].LoRaNic.queue.packetCapacity -1
config *.host[*].LoRaNic.radio.receiver.typename LoRaReceiver
config *.host[*].LoRaNic.radio.receiver.energyDetection -117dBm
config *.host[*].LoRaNic.radio.receiver.sensitivity -117dBm
config *.gateway.numUdpApps 1
config *.gateway.packetForwarder.destAddresses "\"networkServer\""
config *.gateway.packetForwarder.localPort 2000
config *.gateway.packetForwarder.destPort 1000
config *.gateway.packetForwarder.indexNumber 0
config *.networkServer.numApps 1
config *.networkServer.app[0].typename NetworkServerApp
config *.networkServer.app[0].destAddresses "\"gateway\""
config *.networkServer.app[0].destPort 2000
config *.networkServer.app[0].localPort 1000
config *.networkServer.app[0].adrMethod "\"avg\""
config **.energySourceModule "\"\""
config **.energyStorageModule "\"\""
config **.energyConsumerModule "\"\""
config *.visualizer.mediumVisualizer.displaySignals true
config **.host[*].displayString "\"i=misc/sensor\""
config **.gateway.displayString "\"i=misc/antennatower\""
config **.networkServer.displayString "\"i=misc/server\""
config *.visualizer.physicalLinkVisualizer.displayLinks true
config *.visualizer.physicalLinkVisualizer.packetFilter "\"DataFrame*\""
config *.visualizer.dataLinkVisualizer.displayLinks true
config *.radioMedium.*.result-recording-modes default,+vector
config *.host[*].LoRaNic.radio.*.result-recording-modes default,+vector
config **.snir:vector.result-recording-modes +vector

scalar Pathloss "from (480.000000, 372.000000, 0) to (478.000000, 294.000000, 0) unit=none" 1.7719314602942e-06
scalar "Reception power" "from (480.000000, 372.000000, 0) to (478.000000, 294.000000, 0) unit=dBm" -23.53613072305
scalar Pathloss "from (480.000000, 372.000000, 0) to (419.000000, 283.000000, 0) unit=none" 1.3177636557428e-08
scalar "Reception power" "from (480.000000, 372.000000, 0) to (419.000000, 283.000000, 0) unit=dBm" -44.822224659037
scalar Pathloss "from (480.000000, 372.000000, 0) to (548.000000, 242.000000, 0) unit=none" 3.1847892323242e-08
scalar "Reception power" "from (480.000000, 372.000000, 0) to (548.000000, 242.000000, 0) unit=dBm" -40.989792950859
scalar Pathloss "from (480.000000, 372.000000, 0) to (470.000000, 212.000000, 0) unit=none" 3.8923893812026e-08
scalar "Reception power" "from (480.000000, 372.000000, 0) to (470.000000, 212.000000, 0) unit=dBm" -40.118437122371
scalar Pathloss "from (480.000000, 372.000000, 0) to (616.000000, 273.000000, 0) unit=none" 2.6386123750823e-08
scalar "Reception power" "from (480.000000, 372.000000, 0) to (616.000000, 273.000000, 0) unit=dBm" -41.806843963817
scalar Pathloss "from (480.000000, 372.000000, 0) to (331.000000, 259.000000, 0) unit=none" 8.3071184340815e-13
scalar "Reception power" "from (480.000000, 372.000000, 0) to (331.000000, 259.000000, 0) unit=dBm" -86.826095891086
scalar Pathloss "from (480.000000, 372.000000, 0) to (375.000000, 175.000000, 0) unit=none" 8.6842624123974e-09
scalar "Reception power" "from (480.000000, 372.000000, 0) to (375.000000, 175.000000, 0) unit=dBm" -46.633270532689
scalar Pathloss "from (480.000000, 372.000000, 0) to (631.000000, 199.000000, 0) unit=none" 8.0607909001323e-09
scalar "Reception power" "from (480.000000, 372.000000, 0) to (631.000000, 199.000000, 0) unit=dBm" -46.956823357869
scalar Pathloss "from (480.000000, 372.000000, 0) to (580.000000, 134.000000, 0) unit=none" 4.7887492028287e-09
scalar "Reception power" "from (480.000000, 372.000000, 0) to (580.000000, 134.000000, 0) unit=dBm" -49.218378986328
scalar Pathloss "from (480.000000, 372.000000, 0) to (289.000000, 198.000000, 0) unit=none" 4.7967791317103e-09
scalar "Reception power" "from (480.000000, 372.000000, 0) to (289.000000, 198.000000, 0) unit=dBm" -49.211102695449
scalar Pathloss "from (480.000000, 372.000000, 0) to (701.000000, 225.000000, 0) unit=none" 2.6181423330458e-09
scalar "Reception power" "from (480.000000, 372.000000, 0) to (701.000000, 225.000000, 0) unit=dBm" -51.840667384272
scalar Pathloss "from (480.000000, 372.000000, 0) to (304.000000, 168.000000, 0) unit=none" 1.1228867058485e-09
scalar "Reception power" "from (480.000000, 372.000000, 0) to (304.000000, 168.000000, 0) unit=dBm" -55.517240511902
scalar Pathloss "from (480.000000, 372.000000, 0) to (755.000000, 320.000000, 0) unit=none" 1.2076261726823e-09
scalar "Reception power" "from (480.000000, 372.000000, 0) to (755.000000, 320.000000, 0) unit=dBm" -55.201274744824
scalar Pathloss "from (480.000000, 372.000000, 0) to (250.000000, 150.000000, 0) unit=none" 6.5622642586063e-10
scalar "Reception power" "from (480.000000, 372.000000, 0) to (250.000000, 150.000000, 0) unit=dBm" -57.850062761369
scalar Pathloss "from (480.000000, 372.000000, 0) to (239.000000, 153.000000, 0) unit=none" 6.8150736246051e-10
scalar "Reception power" "from (480.000000, 372.000000, 0) to (239.000000, 153.000000, 0) unit=dBm" -57.685894393617
scalar Pathloss "from (480.000000, 372.000000, 0) to (533.000000, 27.000000, 0) unit=none" 9.3585182863154e-12
scalar "Reception power" "from (480.000000, 372.000000, 0) to (533.000000, 27.000000, 0) unit=dBm" -76.308528980403
scalar Pathloss "from (480.000000, 372.000000, 0) to (193.000000, 163.000000, 0) unit=none" 3.4253477004449e-11
scalar "Reception power" "from (480.000000, 372.000000, 0) to (193.000000, 163.000000, 0) unit=dBm" -70.673553288659
scalar Pathloss "from (480.000000, 372.000000, 0) to (388.000000, 19.000000, 0) unit=none" 8.1658065515025e-11
scalar "Reception power" "from (480.000000, 372.000000, 0) to (388.000000, 19.000000, 0) unit=dBm" -66.900609040841
scalar Pathloss "from (480.000000, 372.000000, 0) to (846.000000, 368.000000, 0) unit=none" 9.6094257609673e-11
scalar "Reception power" "from (480.000000, 372.000000, 0) to (846.000000, 368.000000, 0) unit=dBm" -66.19362555407
scalar Pathloss "from (480.000000, 372.000000, 0) to (1048.000000, 439.000000, 0) unit=none" 2.7379323729498e-12
scalar "Reception power" "from (480.000000, 372.000000, 0) to (1048.000000, 439.000000, 0) unit=dBm" -81.646372744903
scalar Pathloss "from (470.000000, 212.000000, 0) to (478.000000, 294.000000, 0) unit=none" 4.1373448443812e-07
scalar "Reception power" "from (470.000000, 212.000000, 0) to (478.000000, 294.000000, 0) unit=dBm" -29.853382708264
scalar Pathloss "from (470.000000, 212.000000, 0) to (548.000000, 242.000000, 0) unit=none" 2.3463287245696e-07
scalar "Reception power" "from (470.000000, 212.000000, 0) to (548.000000, 242.000000, 0) unit=dBm" -32.316711339042
scalar Pathloss "from (470.000000, 212.000000, 0) to (419.000000, 283.000000, 0) unit=none" 6.7484355064107e-08
scalar "Reception power" "from (470.000000, 212.000000, 0) to (419.000000, 283.000000, 0) unit=dBm" -37.728568895615
scalar Pathloss "from (470.000000, 212.000000, 0) to (375.000000, 175.000000, 0) unit=none" 1.8104385949811e-07
scalar "Reception power" "from (470.000000, 212.000000, 0) to (375.000000, 175.000000, 0) unit=dBm" -33.442761919806
scalar Pathloss "from (470.000000, 212.000000, 0) to (580.000000, 134.000000, 0) unit=none" 5.4324635549542e-08
scalar "Reception power" "from (470.000000, 212.000000, 0) to (580.000000, 134.000000, 0) unit=dBm" -38.670631698992
scalar Pathloss "from (470.000000, 212.000000, 0) to (331.000000, 259.000000, 0) unit=none" 3.1617673322518e-08
scalar "Reception power" "from (470.000000, 212.000000, 0) to (331.000000, 259.000000, 0) unit=dBm" -41.021300833652
scalar Pathloss "from (470.000000, 212.000000, 0) to (616.000000, 273.000000, 0) unit=none" 3.7780498386383e-08
scalar "Reception power" "from (470.000000, 212.000000, 0) to (616.000000, 273.000000, 0) unit=dBm" -40.247923086519
scalar Pathloss "from (470.000000, 212.000000, 0) to (480.000000, 372.000000, 0) unit=none" 3.8923893812026e-08
scalar "Reception power" "from (470.000000, 212.000000, 0) to (480.000000, 372.000000, 0) unit=dBm" -40.118437122371
scalar Pathloss "from (470.000000, 212.000000, 0) to (631.000000, 199.000000, 0) unit=none" 3.8952082962372e-08
scalar "Reception power" "from (470.000000, 212.000000, 0) to (631.000000, 199.000000, 0) unit=dBm" -40.115293048039
scalar Pathloss "from (470.000000, 212.000000, 0) to (304.000000, 168.000000, 0) unit=none" 1.3441682464713e-08
scalar "Reception power" "from (470.000000, 212.000000, 0) to (304.000000, 168.000000, 0) unit=dBm" -44.736063595588
scalar Pathloss "from (470.000000, 212.000000, 0) to (289.000000, 198.000000, 0) unit=none" 1.0149900830962e-10
scalar "Reception power" "from (470.000000, 212.000000, 0) to (289.000000, 198.000000, 0) unit=dBm" -65.955981923079
scalar Pathloss "from (470.000000, 212.000000, 0) to (533.000000, 27.000000, 0) unit=none" 1.5719272328645e-14
scalar "Reception power" "from (470.000000, 212.000000, 0) to (533.000000, 27.000000, 0) unit=dBm" -104.05627553376
scalar Pathloss "from (470.000000, 212.000000, 0) to (388.000000, 19.000000, 0) unit=none" 1.2634514447107e-09
scalar "Reception power" "from (470.000000, 212.000000, 0) to (388.000000, 19.000000, 0) unit=dBm" -55.005014349805
scalar Pathloss "from (470.000000, 212.000000, 0) to (250.000000, 150.000000, 0) unit=none" 8.4736989463767e-09
scalar "Reception power" "from (470.000000, 212.000000, 0) to (250.000000, 150.000000, 0) unit=dBm" -46.739869610057
par Wireless3.gateway.ethg$o[0].channel typename "\"inet.node.ethernet.Eth10M\""
par Wireless3.gateway.ethg$o[0].channel disabled false
attr mutable ""
par Wireless3.gateway.ethg$o[0].channel delay 5e-08s
attr mutable ""
attr unit s
par Wireless3.gateway.ethg$o[0].channel datarate 1e+07bps
attr mutable ""
attr unit bps
par Wireless3.gateway.ethg$o[0].channel ber 0
attr mutable ""
par Wireless3.gateway.ethg$o[0].channel per 0
attr mutable ""
par Wireless3.gateway.ethg$o[0].channel length 10m
attr unit m
par Wireless3.networkServer.ethg$o[0].channel typename "\"inet.node.ethernet.Eth10M\""
par Wireless3.networkServer.ethg$o[0].channel disabled false
attr mutable ""
par Wireless3.networkServer.ethg$o[0].channel delay 5e-08s
attr mutable ""
attr unit s
par Wireless3.networkServer.ethg$o[0].channel datarate 1e+07bps
attr mutable ""
attr unit bps
par Wireless3.networkServer.ethg$o[0].channel ber 0
attr mutable ""
par Wireless3.networkServer.ethg$o[0].channel per 0
attr mutable ""
par Wireless3.networkServer.ethg$o[0].channel length 10m
attr unit m
par Wireless3.configurator typename "\"inet.networklayer.configurator.ipv4.Ipv4NetworkConfigurator\""
par Wireless3.configurator minLinkWeight 0.001
par Wireless3.configurator configureIsolatedNetworksSeparatly false
par Wireless3.configurator config "<config>...</config> at content:1"
par Wireless3.configurator assignAddresses true
par Wireless3.configurator assignUniqueAddresses true
par Wireless3.configurator assignDisjunctSubnetAddresses false
par Wireless3.configurator addStaticRoutes true
par Wireless3.configurator addDefaultRoutes true
par Wireless3.configurator addSubnetRoutes true
par Wireless3.configurator addDirectRoutes true
par Wireless3.configurator optimizeRoutes true
par Wireless3.configurator dumpTopology false
par Wireless3.configurator dumpLinks false
par Wireless3.configurator dumpAddresses false
par Wireless3.configurator dumpRoutes false
par Wireless3.configurator dumpConfig "\"\""
par Wireless3.radioMedium.propagation typename "\"inet.physicallayer.wireless.common.propagation.ConstantSpeedPropagation\""
par Wireless3.radioMedium.propagation propagationSpeed 2.99792e+08mps
attr unit mps
par Wireless3.radioMedium.propagation ignoreMovementDuringTransmission true
par Wireless3.radioMedium.propagation ignoreMovementDuringPropagation true
par Wireless3.radioMedium.propagation ignoreMovementDuringReception true
scalar Wireless3.radioMedium.propagation "Arrival computation count" 40
par Wireless3.radioMedium.analogModel typename "\"flora.LoRaPhy.LoRaAnalogModel\""
par Wireless3.radioMedium.analogModel ignorePartialInterference false
par Wireless3.radioMedium.backgroundNoise typename "\"inet.physicallayer.wireless.common.backgroundnoise.DimensionalBackgroundNoise\""
par Wireless3.radioMedium.backgroundNoise gainFunctionCacheLimit 0
par Wireless3.radioMedium.backgroundNoise timeGains "\"left 0s 0dB left\""
par Wireless3.radioMedium.backgroundNoise timeGainsNormalization "\"\""
attr enum ,maximum,integral
par Wireless3.radioMedium.backgroundNoise frequencyGains "\"left 0Hz 0dB left\""
par Wireless3.radioMedium.backgroundNoise frequencyGainsNormalization "\"integral\""
attr enum ,maximum,integral
par Wireless3.radioMedium.backgroundNoise power -117dBm
attr unit dBm
par Wireless3.radioMedium.pathLoss typename "\"inet.physicallayer.wireless.common.pathloss.TrueRays\""
par Wireless3.radioMedium.pathLoss height_tunnel 4
par Wireless3.radioMedium.pathLoss width_tunnel 4
par Wireless3.radioMedium.pathLoss gain_tx_tr 0.2
par Wireless3.radioMedium.pathLoss power_tx 2.5
par Wireless3.radioMedium.pathLoss frequency 9.15e+08
par Wireless3.radioMedium.mediumLimitCache typename "\"inet.physicallayer.wireless.common.medium.MediumLimitCache\""
par Wireless3.radioMedium.mediumLimitCache centerFrequency "nan Hz"
attr unit Hz
par Wireless3.radioMedium.mediumLimitCache maxSpeed "nan mps"
attr unit mps
par Wireless3.radioMedium.mediumLimitCache maxTransmissionPower "nan W"
attr unit W
par Wireless3.radioMedium.mediumLimitCache minInterferencePower "nan dBm"
attr unit dBm
par Wireless3.radioMedium.mediumLimitCache minReceptionPower "nan dBm"
attr unit dBm
par Wireless3.radioMedium.mediumLimitCache maxAntennaGain 0dB
attr unit dB
par Wireless3.radioMedium.mediumLimitCache minInterferenceTime 1e-12s
attr unit s
par Wireless3.radioMedium.mediumLimitCache maxTransmissionDuration 100s
attr unit s
par Wireless3.radioMedium.mediumLimitCache maxCommunicationRange "nan m"
attr unit m
par Wireless3.radioMedium.mediumLimitCache maxInterferenceRange "nan m"
attr unit m
par Wireless3.radioMedium.communicationCache typename "\"inet.physicallayer.wireless.common.communicationcache.VectorCommunicationCache\""
par Wireless3.radioMedium typename "\"flora.LoRaPhy.LoRaMedium\""
par Wireless3.radioMedium physicalEnvironmentModule "\"physicalEnvironment\""
par Wireless3.radioMedium signalAnalogRepresentation "\"scalar\""
attr enum unitDisk,scalar,dimensional
par Wireless3.radioMedium rangeFilter "\"\""
par Wireless3.radioMedium radioModeFilter false
par Wireless3.radioMedium listeningFilter false
par Wireless3.radioMedium macAddressFilter false
par Wireless3.radioMedium recordTransmissionLog false
par Wireless3.radioMedium recordReceptionLog false
scalar Wireless3.radioMedium "transmission count" 2
scalar Wireless3.radioMedium "signal send count" 40
scalar Wireless3.radioMedium "reception computation count" 34
scalar Wireless3.radioMedium "interference computation count" 24
scalar Wireless3.radioMedium "reception decision computation count" 0
scalar Wireless3.radioMedium "listening decision computation count" 22
scalar Wireless3.radioMedium "reception cache hit" 12.820512820513
attr unit %
scalar Wireless3.radioMedium "interference cache hit" nan
attr unit %
scalar Wireless3.radioMedium "noise cache hit" nan
attr unit %
scalar Wireless3.radioMedium "snir cache hit" nan
attr unit %
scalar Wireless3.radioMedium "reception decision cache hit" nan
attr unit %
scalar Wireless3.radioMedium "reception result cache hit" nan
attr unit %
par Wireless3.networkServer.ethg$i[0].channel typename "\"ned.IdealChannel\""
par Wireless3.networkServer.eth[0].phys$o.channel typename "\"ned.IdealChannel\""
par Wireless3.networkServer.mobility typename "\"inet.mobility.static.StationaryMobility\""
par Wireless3.networkServer.mobility subjectModule "\"^\""
par Wireless3.networkServer.mobility coordinateSystemModule "\"\""
par Wireless3.networkServer.mobility displayStringTextFormat "\"p: %p\\nv: %v\""
attr mutable ""
par Wireless3.networkServer.mobility updateDisplayString true
par Wireless3.networkServer.mobility constraintAreaMinX "-inf m"
attr unit m
par Wireless3.networkServer.mobility constraintAreaMinY "-inf m"
attr unit m
par Wireless3.networkServer.mobility constraintAreaMinZ "-inf m"
attr unit m
par Wireless3.networkServer.mobility constraintAreaMaxX "inf m"
attr unit m
par Wireless3.networkServer.mobility constraintAreaMaxY "inf m"
attr unit m
par Wireless3.networkServer.mobility constraintAreaMaxZ "inf m"
attr unit m
par Wireless3.networkServer.mobility initialX 400m
attr unit m
par Wireless3.networkServer.mobility initialY 50m
attr unit m
par Wireless3.networkServer.mobility initialZ 0m
attr unit m
par Wireless3.networkServer.mobility initialLatitude "nan deg"
attr unit deg
par Wireless3.networkServer.mobility initialLongitude "nan deg"
attr unit deg
par Wireless3.networkServer.mobility initialAltitude 0m
attr unit m
par Wireless3.networkServer.mobility initialHeading 0deg
attr unit deg
par Wireless3.networkServer.mobility initialElevation 0deg
attr unit deg
par Wireless3.networkServer.mobility initialBank 0deg
attr unit deg
par Wireless3.networkServer.mobility initFromDisplayString false
par Wireless3.networkServer.mobility updateFromDisplayString true
par Wireless3.networkServer.interfaceTable typename "\"inet.networklayer.common.InterfaceTable\""
par Wireless3.networkServer.interfaceTable displayAddresses false
par Wireless3.networkServer.cb typename "\"inet.common.MessageDispatcher\""
par Wireless3.networkServer.cb displayStringTextFormat "\"processed %p pk (%l)\""
par Wireless3.networkServer.cb forwardServiceRegistration true
par Wireless3.networkServer.cb forwardProtocolRegistration true
par Wireless3.networkServer.bl typename "\"inet.common.MessageDispatcher\""
par Wireless3.networkServer.bl displayStringTextFormat "\"processed %p pk (%l)\""
par Wireless3.networkServer.bl forwardServiceRegistration true
par Wireless3.networkServer.bl forwardProtocolRegistration true
par Wireless3.networkServer.ethernet typename "\"inet.linklayer.ethernet.basic.EthernetEncapsulation\""
par Wireless3.networkServer.ethernet registerProtocol true
par Wireless3.networkServer.ethernet interfaceTableModule "\"Wireless3.networkServer.interfaceTable\""
par Wireless3.networkServer.ethernet fcsMode "\"declared\""
attr enum declared,computed
par Wireless3.networkServer.ethernet stopOperationExtraTime -1s
attr unit s
par Wireless3.networkServer.ethernet stopOperationTimeout 2s
attr unit s
scalar Wireless3.networkServer.ethernet decapPk:count 0
attr interpolationmode none
attr recordingmode count
attr source decapPk
attr title "packets decapsulated, count"
scalar Wireless3.networkServer.ethernet decapPk:sum(packetBytes) 0
attr interpolationmode none
attr recordingmode sum(packetBytes)
attr source decapPk
attr title "packets decapsulated, sum(packetBytes)"
scalar Wireless3.networkServer.ethernet encapPk:count 0
attr interpolationmode none
attr recordingmode count
attr source encapPk
attr title "packets encapsulated, count"
scalar Wireless3.networkServer.ethernet encapPk:sum(packetBytes) 0
attr interpolationmode none
attr recordingmode sum(packetBytes)
attr source encapPk
attr title "packets encapsulated, sum(packetBytes)"
scalar Wireless3.networkServer.ethernet pauseSent:count 0
attr recordingmode count
attr title "pause sent, count"
scalar Wireless3.networkServer.ethernet pauseSent:sum 0
attr recordingmode sum
attr title "pause sent, sum"
par Wireless3.networkServer.li typename "\"inet.common.MessageDispatcher\""
par Wireless3.networkServer.li displayStringTextFormat "\"processed %p pk (%l)\""
par Wireless3.networkServer.li forwardServiceRegistration true
par Wireless3.networkServer.li forwardProtocolRegistration true
par Wireless3.networkServer.lo[0].upperLayerIn.channel typename "\"ned.IdealChannel\""
par Wireless3.networkServer.lo[0].lo.upperLayerOut.channel typename "\"ned.IdealChannel\""
par Wireless3.networkServer.lo[0].lo typename "\"inet.linklayer.loopback.Loopback\""
par Wireless3.networkServer.lo[0].lo interfaceTableModule "\"Wireless3.networkServer.interfaceTable\""
par Wireless3.networkServer.lo[0].lo mtu 4470B
attr unit B
scalar Wireless3.networkServer.lo[0].lo rcvdPkFromHl:count 0
attr interpolationmode none
attr recordingmode count
attr source packetReceivedFromUpper
attr title "packets received from higher layer, count"
scalar Wireless3.networkServer.lo[0].lo rcvdPkFromHl:sum(packetBytes) 0
attr interpolationmode none
attr recordingmode sum(packetBytes)
attr source packetReceivedFromUpper
attr title "packets received from higher layer, sum(packetBytes)"
scalar Wireless3.networkServer.lo[0].lo passedUpPk:count 0
attr interpolationmode none
attr recordingmode count
attr source packetSentToUpper
attr title "packets passed to higher layer, count"
scalar Wireless3.networkServer.lo[0].lo passedUpPk:sum(packetBytes) 0
attr interpolationmode none
attr recordingmode sum(packetBytes)
attr source packetSentToUpper
attr title "packets passed to higher layer, sum(packetBytes)"
par Wireless3.networkServer.lo[0] typename "\"inet.linklayer.loopback.LoopbackInterface\""
par Wireless3.networkServer.lo[0] displayStringTextFormat "\"%a (%i)\\n%m\""
par Wireless3.networkServer.lo[0] recordPcap false
par Wireless3.networkServer.lo[0] numPcapRecorders 0
par Wireless3.networkServer.lo[0] interfaceTableModule "\"Wireless3.networkServer.interfaceTable\""
scalar Wireless3.networkServer.lo[0] packetDropInterfaceDown:count 0
attr interpolationmode none
attr recordingmode count
attr source packetDropReasonIsInterfaceDown(packetDropped)
attr title "packet drops: interface down, count"
scalar Wireless3.networkServer.lo[0] packetDropInterfaceDown:sum(packetBytes) 0
attr interpolationmode none
attr recordingmode sum(packetBytes)
attr source packetDropReasonIsInterfaceDown(packetDropped)
attr title "packet drops: interface down, sum(packetBytes)"
scalar Wireless3.networkServer.lo[0] packetDropNoCarrier:count 0
attr interpolationmode none
attr recordingmode count
attr source packetDropReasonIsNoCarrier(packetDropped)
attr title "packet drops: no carrier, count"
scalar Wireless3.networkServer.lo[0] packetDropNoCarrier:sum(packetBytes) 0
attr interpolationmode none
attr recordingmode sum(packetBytes)
attr source packetDropReasonIsNoCarrier(packetDropped)
attr title "packet drops: no carrier, sum(packetBytes)"
par Wireless3.networkServer.eth[0].mac.phys$o.channel typename "\"ned.IdealChannel\""
par Wireless3.networkServer.eth[0].phys$i.channel typename "\"ned.IdealChannel\""
par Wireless3.networkServer.eth[0].upperLayerIn.channel typename "\"ned.IdealChannel\""
par Wireless3.networkServer.eth[0].mac.upperLayerOut.channel typename "\"ned.IdealChannel\""
par Wireless3.networkServer.eth[0].queue typename "\"inet.linklayer.ethernet.common.EthernetQueue\""
par Wireless3.networkServer.eth[0].queue displayStringTextFormat "\"contains %p pk (%l) pushed %u\\npulled %o removed %r dropped %d\""
par Wireless3.networkServer.eth[0].queue packetCapacity 1000
par Wireless3.networkServer.eth[0].queue dataCapacity -1b
attr unit b
par Wireless3.networkServer.eth[0].queue dropperClass "\"inet::queueing::PacketAtCollectionEndDropper\""
par Wireless3.networkServer.eth[0].queue comparatorClass "\"inet::EthernetFrameTypeComparator\""
par Wireless3.networkServer.eth[0].queue bufferModule "\"\""
scalar Wireless3.networkServer.eth[0].queue queueLength:last 0
attr autoWarmupFilter false
attr interpolationmode sample-hold
attr recordingmode last
attr source "warmup(atomic(constant0(packetPushEnded) + count(packetPushStarted) - count(packetPulled) - count(packetRemoved) - count(packetDropped)))"
attr title "queue length, last"
attr unit pk
scalar Wireless3.networkServer.eth[0].queue queueLength:max 0
attr autoWarmupFilter false
attr interpolationmode sample-hold
attr recordingmode max
attr source "warmup(atomic(constant0(packetPushEnded) + count(packetPushStarted) - count(packetPulled) - count(packetRemoved) - count(packetDropped)))"
attr title "queue length, max"
attr unit pk
scalar Wireless3.networkServer.eth[0].queue queueLength:timeavg 0
attr autoWarmupFilter false
attr interpolationmode sample-hold
attr recordingmode timeavg
attr source "warmup(atomic(constant0(packetPushEnded) + count(packetPushStarted) - count(packetPulled) - count(packetRemoved) - count(packetDropped)))"
attr title "queue length, timeavg"
attr unit pk
scalar Wireless3.networkServer.eth[0].queue queueBitLength:last 0
attr autoWarmupFilter false
attr interpolationmode sample-hold
attr recordingmode last
attr source "warmup(atomic(constant0(packetPushEnded) + sum(packetLength(packetPushStarted)) - sum(packetLength(packetPulled)) - sum(packetLength(packetRemoved)) - sum(packetLength(packetDropped))))"
attr title "queue bit length, last"
attr unit b
scalar Wireless3.networkServer.eth[0].queue queueBitLength:max 0
attr autoWarmupFilter false
attr interpolationmode sample-hold
attr recordingmode max
attr source "warmup(atomic(constant0(packetPushEnded) + sum(packetLength(packetPushStarted)) - sum(packetLength(packetPulled)) - sum(packetLength(packetRemoved)) - sum(packetLength(packetDropped))))"
attr title "queue bit length, max"
attr unit b
scalar Wireless3.networkServer.eth[0].queue queueBitLength:timeavg 0
attr autoWarmupFilter false
attr interpolationmode sample-hold
attr recordingmode timeavg
attr source "warmup(atomic(constant0(packetPushEnded) + sum(packetLength(packetPushStarted)) - sum(packetLength(packetPulled)) - sum(packetLength(packetRemoved)) - sum(packetLength(packetDropped))))"
attr title "queue bit length, timeavg"
attr unit b
statistic Wireless3.networkServer.eth[0].queue queueingTime:histogram
field count 0
field mean nan
field stddev nan
field min nan
field max nan
field sum 0
field sqrsum 0
attr interpolationmode none
attr recordingmode histogram
attr source queueingTime(packetPulled)
attr title "queueing times"
attr unit s
bin	-inf	0
bin	0	0
bin	1	0
scalar Wireless3.networkServer.eth[0].queue outgoingPackets:count 0
attr recordingmode count
attr source packetPulled
attr title "outgoing packets, count"
attr unit pk
scalar Wireless3.networkServer.eth[0].queue outgoingPacketLengths:sum 0
attr interpolationmode none
attr recordingmode sum
attr source packetLength(packetPulled)
attr title "outgoing packet lengths, sum"
attr unit b
statistic Wireless3.networkServer.eth[0].queue outgoingPacketLengths:histogram
field count 0
field mean nan
field stddev nan
field min nan
field max nan
field sum 0
field sqrsum 0
attr interpolationmode none
attr recordingmode histogram
attr source packetLength(packetPulled)
attr title "outgoing packet lengths"
attr unit b
bin	-inf	0
bin	0	0
bin	1	0
statistic Wireless3.networkServer.eth[0].queue flowQueueingTime:histogram
field count 0
field mean nan
field stddev nan
field min nan
field max nan
field sum 0
field sqrsum 0
attr interpolationmode none
attr recordingmode histogram
attr source queueingTime(demuxFlow(packetPulled))
attr title "flow queueing times"
attr unit s
bin	-inf	0
bin	0	0
bin	1	0
scalar Wireless3.networkServer.eth[0].queue incomingPackets:count 0
attr recordingmode count
attr source packetPushStarted
attr title "incoming packets, count"
attr unit pk
scalar Wireless3.networkServer.eth[0].queue incomingPacketLengths:sum 0
attr interpolationmode none
attr recordingmode sum
attr source packetLength(packetPushStarted)
attr title "incoming packet lengths, sum"
attr unit b
statistic Wireless3.networkServer.eth[0].queue incomingPacketLengths:histogram
field count 0
field mean nan
field stddev nan
field min nan
field max nan
field sum 0
field sqrsum 0
attr interpolationmode none
attr recordingmode histogram
attr source packetLength(packetPushStarted)
attr title "incoming packet lengths"
attr unit b
bin	-inf	0
bin	0	0
bin	1	0
scalar Wireless3.networkServer.eth[0].queue droppedPacketsQueueOverflow:count 0
attr interpolationmode none
attr recordingmode count
attr source packetDropReasonIsQueueOverflow(packetDropped)
attr title "dropped packets: queue overflow, count"
attr unit pk
scalar Wireless3.networkServer.eth[0].queue droppedPacketLengthsQueueOverflow:sum 0
attr interpolationmode none
attr recordingmode sum
attr source packetLength(packetDropReasonIsQueueOverflow(packetDropped))
attr title "dropped packet lengths: queue overflow, sum"
attr unit b
par Wireless3.networkServer.eth[0].mac typename "\"inet.linklayer.ethernet.basic.EthernetMac\""
par Wireless3.networkServer.eth[0].mac interfaceTableModule "\"Wireless3.networkServer.interfaceTable\""
par Wireless3.networkServer.eth[0].mac displayStringTextFormat "\"rate: %b\\nsent: %s, rcvd: %r\\nqueue: %q, drop: %d\""
par Wireless3.networkServer.eth[0].mac sendRawBytes false
par Wireless3.networkServer.eth[0].mac promiscuous false
par Wireless3.networkServer.eth[0].mac duplexMode true
par Wireless3.networkServer.eth[0].mac mtu 1500B
attr unit B
par Wireless3.networkServer.eth[0].mac fcsMode "\"declared\""
attr enum declared,computed
par Wireless3.networkServer.eth[0].mac stopOperationExtraTime -1s
attr unit s
par Wireless3.networkServer.eth[0].mac stopOperationTimeout 2s
attr unit s
scalar Wireless3.networkServer.eth[0].mac "simulated time" 5.22306330397
scalar Wireless3.networkServer.eth[0].mac full-duplex 1
scalar Wireless3.networkServer.eth[0].mac "frames/sec sent" 0
scalar Wireless3.networkServer.eth[0].mac "frames/sec rcvd" 0
scalar Wireless3.networkServer.eth[0].mac "bits/sec sent" 0
scalar Wireless3.networkServer.eth[0].mac "bits/sec rcvd" 0
scalar Wireless3.networkServer.eth[0].mac "rx channel idle (%)" 100
scalar Wireless3.networkServer.eth[0].mac "rx channel utilization (%)" 0
scalar Wireless3.networkServer.eth[0].mac txPk:count 0
attr interpolationmode none
attr recordingmode count
attr source packetSentToLower
attr title "packets transmitted, count"
scalar Wireless3.networkServer.eth[0].mac txPk:sum(packetBytes) 0
attr interpolationmode none
attr recordingmode sum(packetBytes)
attr source packetSentToLower
attr title "packets transmitted, sum(packetBytes)"
scalar Wireless3.networkServer.eth[0].mac packetReceivedFromUpper:count 0
attr interpolationmode none
attr recordingmode count
attr source packetReceivedFromUpper
attr title "packet bytes from higher layer, count"
scalar Wireless3.networkServer.eth[0].mac packetReceivedFromUpper:sum(packetBytes) 0
attr interpolationmode none
attr recordingmode sum(packetBytes)
attr source packetReceivedFromUpper
attr title "packet bytes from higher layer, sum(packetBytes)"
scalar Wireless3.networkServer.eth[0].mac passedUpPk:count 0
attr interpolationmode none
attr recordingmode count
attr source packetSentToUpper
attr title "packets passed to higher layer, count"
scalar Wireless3.networkServer.eth[0].mac passedUpPk:sum(packetBytes) 0
attr interpolationmode none
attr recordingmode sum(packetBytes)
attr source packetSentToUpper
attr title "packets passed to higher layer, sum(packetBytes)"
scalar Wireless3.networkServer.eth[0].mac packetDropIncorrectlyReceived:count 0
attr interpolationmode none
attr recordingmode count
attr source packetDropReasonIsIncorrectlyReceived(packetDropped)
attr title "packet drop: incorrectly received, count"
scalar Wireless3.networkServer.eth[0].mac packetDropIncorrectlyReceived:sum(packetBytes) 0
attr interpolationmode none
attr recordingmode sum(packetBytes)
attr source packetDropReasonIsIncorrectlyReceived(packetDropped)
attr title "packet drop: incorrectly received, sum(packetBytes)"
scalar Wireless3.networkServer.eth[0].mac packetDropInterfaceDown:count 0
attr interpolationmode none
attr recordingmode count
attr source packetDropReasonIsInterfaceDown(packetDropped)
attr title "packet drop: interface down, count"
scalar Wireless3.networkServer.eth[0].mac packetDropInterfaceDown:sum(packetBytes) 0
attr interpolationmode none
attr recordingmode sum(packetBytes)
attr source packetDropReasonIsInterfaceDown(packetDropped)
attr title "packet drop: interface down, sum(packetBytes)"
scalar Wireless3.networkServer.eth[0].mac packetDropNotAddressedToUs:count 0
attr interpolationmode none
attr recordingmode count
attr source packetDropReasonIsNotAddressedToUs(packetDropped)
attr title "packet drop: not addressed to us, count"
scalar Wireless3.networkServer.eth[0].mac packetDropNotAddressedToUs:sum(packetBytes) 0
attr interpolationmode none
attr recordingmode sum(packetBytes)
attr source packetDropReasonIsNotAddressedToUs(packetDropped)
attr title "packet drop: not addressed to us, sum(packetBytes)"
scalar Wireless3.networkServer.eth[0].mac rxPausePkUnits:count 0
attr interpolationmode none
attr recordingmode count
attr title "pause units received, count"
scalar Wireless3.networkServer.eth[0].mac rxPausePkUnits:sum 0
attr interpolationmode none
attr recordingmode sum
attr title "pause units received, sum"
scalar Wireless3.networkServer.eth[0].mac txPausePkUnits:count 0
attr interpolationmode none
attr recordingmode count
attr title "pause units sent, count"
scalar Wireless3.networkServer.eth[0].mac txPausePkUnits:sum 0
attr interpolationmode none
attr recordingmode sum
attr title "pause units sent, sum"
scalar Wireless3.networkServer.eth[0].mac rxPkOk:count 0
attr interpolationmode none
attr recordingmode count
attr source rxPkOk
attr title "packets received OK, count"
scalar Wireless3.networkServer.eth[0].mac rxPkOk:sum(packetBytes) 0
attr interpolationmode none
attr recordingmode sum(packetBytes)
attr source rxPkOk
attr title "packets received OK, sum(packetBytes)"
par Wireless3.networkServer.eth[0] typename "\"inet.linklayer.ethernet.EthernetInterface\""
par Wireless3.networkServer.eth[0] displayStringTextFormat "\"%a (%i)\\n%m\""
par Wireless3.networkServer.eth[0] recordPcap false
par Wireless3.networkServer.eth[0] numPcapRecorders 0
par Wireless3.networkServer.eth[0] interfaceTableModule "\"Wireless3.networkServer.interfaceTable\""
par Wireless3.networkServer.eth[0] protocol "\"ethernetmac\""
par Wireless3.networkServer.eth[0] address "\"0A-AA-00-00-00-16\""
attr mutable ""
par Wireless3.networkServer.eth[0] duplexMode true
par Wireless3.networkServer.eth[0] csmacdSupport false
par Wireless3.networkServer.eth[0] bitrate 0bps
attr unit bps
par Wireless3.networkServer.eth[0] fcsMode "\"declared\""
attr enum declared,computed
scalar Wireless3.networkServer.eth[0] packetDropInterfaceDown:count 0
attr interpolationmode none
attr recordingmode count
attr source packetDropReasonIsInterfaceDown(packetDropped)
attr title "packet drops: interface down, count"
scalar Wireless3.networkServer.eth[0] packetDropInterfaceDown:sum(packetBytes) 0
attr interpolationmode none
attr recordingmode sum(packetBytes)
attr source packetDropReasonIsInterfaceDown(packetDropped)
attr title "packet drops: interface down, sum(packetBytes)"
scalar Wireless3.networkServer.eth[0] packetDropNoCarrier:count 0
attr interpolationmode none
attr recordingmode count
attr source packetDropReasonIsNoCarrier(packetDropped)
attr title "packet drops: no carrier, count"
scalar Wireless3.networkServer.eth[0] packetDropNoCarrier:sum(packetBytes) 0
attr interpolationmode none
attr recordingmode sum(packetBytes)
attr source packetDropReasonIsNoCarrier(packetDropped)
attr title "packet drops: no carrier, sum(packetBytes)"
par Wireless3.networkServer.ipv4.transportIn.channel typename "\"ned.IdealChannel\""
par Wireless3.networkServer.ipv4.up.out[0].channel typename "\"ned.IdealChannel\""
par Wireless3.networkServer.ipv4.lp.out[2].channel typename "\"ned.IdealChannel\""
par Wireless3.networkServer.ipv4.ifIn.channel typename "\"ned.IdealChannel\""
par Wireless3.networkServer.ipv4.configurator typename "\"inet.networklayer.configurator.ipv4.Ipv4NodeConfigurator\""
par Wireless3.networkServer.ipv4.configurator interfaceTableModule "\"Wireless3.networkServer.interfaceTable\""
par Wireless3.networkServer.ipv4.configurator routingTableModule "\"Wireless3.networkServer.ipv4.routingTable\""
par Wireless3.networkServer.ipv4.configurator networkConfiguratorModule "\"configurator\""
par Wireless3.networkServer.ipv4.configurator configureRoutingTable true
par Wireless3.networkServer.ipv4.routingTable typename "\"inet.networklayer.ipv4.Ipv4RoutingTable\""
par Wireless3.networkServer.ipv4.routingTable interfaceTableModule "\"Wireless3.networkServer.interfaceTable\""
par Wireless3.networkServer.ipv4.routingTable routerId "\"auto\""
par Wireless3.networkServer.ipv4.routingTable netmaskRoutes "\"*\""
par Wireless3.networkServer.ipv4.routingTable forwarding false
par Wireless3.networkServer.ipv4.routingTable multicastForwarding false
par Wireless3.networkServer.ipv4.routingTable useAdminDist false
par Wireless3.networkServer.ipv4.routingTable routingFile "\"\""
par Wireless3.networkServer.ipv4.natTable typename "\"inet.networklayer.ipv4.Ipv4NatTable\""
par Wireless3.networkServer.ipv4.natTable networkProtocolModule "\"^.ip\""
par Wireless3.networkServer.ipv4.natTable config "<config/> at content:1"
par Wireless3.networkServer.ipv4.up typename "\"inet.common.MessageDispatcher\""
par Wireless3.networkServer.ipv4.up displayStringTextFormat "\"processed %p pk (%l)\""
par Wireless3.networkServer.ipv4.up forwardServiceRegistration true
par Wireless3.networkServer.ipv4.up forwardProtocolRegistration true
par Wireless3.networkServer.ipv4.igmp typename "\"inet.networklayer.ipv4.Igmpv2\""
par Wireless3.networkServer.ipv4.igmp interfaceTableModule "\"Wireless3.networkServer.interfaceTable\""
par Wireless3.networkServer.ipv4.igmp routingTableModule "\"Wireless3.networkServer.ipv4.routingTable\""
par Wireless3.networkServer.ipv4.igmp crcMode "\"declared\""
attr enum declared,computed
par Wireless3.networkServer.ipv4.igmp enabled true
par Wireless3.networkServer.ipv4.igmp robustnessVariable 2
par Wireless3.networkServer.ipv4.igmp queryInterval 125s
attr unit s
par Wireless3.networkServer.ipv4.igmp queryResponseInterval 10s
attr unit s
par Wireless3.networkServer.ipv4.igmp groupMembershipInterval 260s
attr unit s
par Wireless3.networkServer.ipv4.igmp otherQuerierPresentInterval 255s
attr unit s
par Wireless3.networkServer.ipv4.igmp startupQueryInterval 31.25s
attr unit s
par Wireless3.networkServer.ipv4.igmp startupQueryCount 2
par Wireless3.networkServer.ipv4.igmp lastMemberQueryInterval 1s
attr unit s
par Wireless3.networkServer.ipv4.igmp lastMemberQueryCount 2
par Wireless3.networkServer.ipv4.igmp unsolicitedReportInterval 10s
attr unit s
par Wireless3.networkServer.ipv4.icmp typename "\"inet.networklayer.ipv4.Icmp\""
par Wireless3.networkServer.ipv4.icmp interfaceTableModule "\"Wireless3.networkServer.interfaceTable\""
par Wireless3.networkServer.ipv4.icmp routingTableModule "\"Wireless3.networkServer.ipv4.routingTable\""
par Wireless3.networkServer.ipv4.icmp crcMode "\"declared\""
attr enum declared,computed
attr mutable ""
par Wireless3.networkServer.ipv4.icmp quoteLength 8B
attr mutable ""
attr unit B
par Wireless3.networkServer.ipv4.mp typename "\"inet.common.MessageDispatcher\""
par Wireless3.networkServer.ipv4.mp displayStringTextFormat "\"processed %p pk (%l)\""
par Wireless3.networkServer.ipv4.mp forwardServiceRegistration true
par Wireless3.networkServer.ipv4.mp forwardProtocolRegistration true
par Wireless3.networkServer.ipv4.ip typename "\"inet.networklayer.ipv4.Ipv4\""
par Wireless3.networkServer.ipv4.ip interfaceTableModule "\"Wireless3.networkServer.interfaceTable\""
par Wireless3.networkServer.ipv4.ip routingTableModule "\"Wireless3.networkServer.ipv4.routingTable\""
par Wireless3.networkServer.ipv4.ip arpModule "\"Wireless3.networkServer.ipv4.arp\""
par Wireless3.networkServer.ipv4.ip icmpModule "\"Wireless3.networkServer.ipv4.icmp\""
par Wireless3.networkServer.ipv4.ip crcMode "\"declared\""
attr enum declared,computed
par Wireless3.networkServer.ipv4.ip timeToLive 32
par Wireless3.networkServer.ipv4.ip multicastTimeToLive 32
par Wireless3.networkServer.ipv4.ip fragmentTimeout 60s
attr unit s
par Wireless3.networkServer.ipv4.ip limitedBroadcast false
par Wireless3.networkServer.ipv4.ip directBroadcastInterfaces "\"\""
scalar Wireless3.networkServer.ipv4.ip packetDropAddressResolutionFailed:count 0
attr interpolationmode none
attr recordingmode count
attr source packetDropReasonIsAddressResolutionFailed(packetDropped)
attr title "packet drop: address resolution failed, count"
scalar Wireless3.networkServer.ipv4.ip packetDropAddressResolutionFailed:sum(packetBytes) 0
attr interpolationmode none
attr recordingmode sum(packetBytes)
attr source packetDropReasonIsAddressResolutionFailed(packetDropped)
attr title "packet drop: address resolution failed, sum(packetBytes)"
scalar Wireless3.networkServer.ipv4.ip packetDropHopLimitReached:count 0
attr interpolationmode none
attr recordingmode count
attr source packetDropReasonIsHopLimitReached(packetDropped)
attr title "packet drop: hop limit reached, count"
scalar Wireless3.networkServer.ipv4.ip packetDropHopLimitReached:sum(packetBytes) 0
attr interpolationmode none
attr recordingmode sum(packetBytes)
attr source packetDropReasonIsHopLimitReached(packetDropped)
attr title "packet drop: hop limit reached, sum(packetBytes)"
scalar Wireless3.networkServer.ipv4.ip packetDropForwardingDisabled:count 0
attr interpolationmode none
attr recordingmode count
attr source packetDropReasonIsForwardingDisabled(packetDropped)
attr title "packet drop: forwarding disabled, count"
scalar Wireless3.networkServer.ipv4.ip packetDropForwardingDisabled:sum(packetBytes) 0
attr interpolationmode none
attr recordingmode sum(packetBytes)
attr source packetDropReasonIsForwardingDisabled(packetDropped)
attr title "packet drop: forwarding disabled, sum(packetBytes)"
scalar Wireless3.networkServer.ipv4.ip packetDropNoInterfaceFound:count 0
attr interpolationmode none
attr recordingmode count
attr source packetDropReasonIsNoInterfaceFound(packetDropped)
attr title "packet drop: no interface found, count"
scalar Wireless3.networkServer.ipv4.ip packetDropNoInterfaceFound:sum(packetBytes) 0
attr interpolationmode none
attr recordingmode sum(packetBytes)
attr source packetDropReasonIsNoInterfaceFound(packetDropped)
attr title "packet drop: no interface found, sum(packetBytes)"
scalar Wireless3.networkServer.ipv4.ip packetDropNoRouteFound:count 0
attr interpolationmode none
attr recordingmode count
attr source packetDropReasonIsNoRouteFound(packetDropped)
attr title "packet drop: no route found, count"
scalar Wireless3.networkServer.ipv4.ip packetDropNoRouteFound:sum(packetBytes) 0
attr interpolationmode none
attr recordingmode sum(packetBytes)
attr source packetDropReasonIsNoRouteFound(packetDropped)
attr title "packet drop: no route found, sum(packetBytes)"
scalar Wireless3.networkServer.ipv4.ip packetDropUndefined:count 0
attr interpolationmode none
attr recordingmode count
attr source packetDropReasonIsUndefined(packetDropped)
attr title "packet drop: undefined, count"
scalar Wireless3.networkServer.ipv4.ip packetDropUndefined:sum(packetBytes) 0
attr interpolationmode none
attr recordingmode sum(packetBytes)
attr source packetDropReasonIsUndefined(packetDropped)
attr title "packet drop: undefined, sum(packetBytes)"
par Wireless3.networkServer.ipv4.arp typename "\"inet.networklayer.arp.ipv4.Arp\""
par Wireless3.networkServer.ipv4.arp interfaceTableModule "\"Wireless3.networkServer.interfaceTable\""
par Wireless3.networkServer.ipv4.arp routingTableModule "\"Wireless3.networkServer.ipv4.routingTable\""
par Wireless3.networkServer.ipv4.arp retryTimeout 1s
attr unit s
par Wireless3.networkServer.ipv4.arp retryCount 3
par Wireless3.networkServer.ipv4.arp cacheTimeout 120s
attr unit s
par Wireless3.networkServer.ipv4.arp proxyArpInterfaces "\"\""
scalar Wireless3.networkServer.ipv4.arp arpReplySent:count 0
attr recordingmode count
attr source arpReplySent
attr title "ARP replies sent, count"
scalar Wireless3.networkServer.ipv4.arp arpReplySent:sum(packetBytes) 0
attr recordingmode sum(packetBytes)
attr source arpReplySent
attr title "ARP replies sent, sum(packetBytes)"
scalar Wireless3.networkServer.ipv4.arp arpRequestSent:count 0
attr recordingmode count
attr source arpRequestSent
attr title "ARP request sent, count"
scalar Wireless3.networkServer.ipv4.arp arpRequestSent:sum(packetBytes) 0
attr recordingmode sum(packetBytes)
attr source arpRequestSent
attr title "ARP request sent, sum(packetBytes)"
scalar Wireless3.networkServer.ipv4.arp arpResolutionFailed:count 0
attr recordingmode count
attr title "ARP failed resolutions, count"
scalar Wireless3.networkServer.ipv4.arp arpResolutionCompleted:count 0
attr recordingmode count
attr title "ARP completed resolutions, count"
scalar Wireless3.networkServer.ipv4.arp arpResolutionInitiated:count 0
attr recordingmode count
attr title "ARP initiated resolutions, count"
par Wireless3.networkServer.ipv4.lp typename "\"inet.common.MessageDispatcher\""
par Wireless3.networkServer.ipv4.lp displayStringTextFormat "\"processed %p pk (%l)\""
par Wireless3.networkServer.ipv4.lp forwardServiceRegistration true
par Wireless3.networkServer.ipv4.lp forwardProtocolRegistration true
par Wireless3.networkServer.ipv4 typename "\"inet.networklayer.ipv4.Ipv4NetworkLayer\""
par Wireless3.networkServer.ipv4 forwarding false
par Wireless3.networkServer.ipv4 multicastForwarding false
par Wireless3.networkServer.ipv4 interfaceTableModule "\"Wireless3.networkServer.interfaceTable\""
par Wireless3.networkServer.ipv4 displayStringTextFormat "\"%i\""
par Wireless3.networkServer.nl typename "\"inet.common.MessageDispatcher\""
par Wireless3.networkServer.nl displayStringTextFormat "\"processed %p pk (%l)\""
par Wireless3.networkServer.nl forwardServiceRegistration true
par Wireless3.networkServer.nl forwardProtocolRegistration true
par Wireless3.networkServer.udp typename "\"inet.transportlayer.udp.Udp\""
par Wireless3.networkServer.udp interfaceTableModule "\"Wireless3.networkServer.interfaceTable\""
par Wireless3.networkServer.udp icmpModule "\"^.ipv4.icmp\""
par Wireless3.networkServer.udp icmpv6Module "\"^.ipv6.icmpv6\""
par Wireless3.networkServer.udp crcMode "\"declared\""
attr enum disabled,declared,computed
par Wireless3.networkServer.udp defaultMulticastLoop true
scalar Wireless3.networkServer.udp packetReceived:count 0
attr interpolationmode none
attr recordingmode count
attr source packetReceived
attr title "packets received, count"
scalar Wireless3.networkServer.udp packetReceived:sum(packetBytes) 0
attr interpolationmode none
attr recordingmode sum(packetBytes)
attr source packetReceived
attr title "packets received, sum(packetBytes)"
scalar Wireless3.networkServer.udp packetSent:count 0
attr interpolationmode none
attr recordingmode count
attr source packetSent
attr title "packets sent, count"
scalar Wireless3.networkServer.udp packetSent:sum(packetBytes) 0
attr interpolationmode none
attr recordingmode sum(packetBytes)
attr source packetSent
attr title "packets sent, sum(packetBytes)"
scalar Wireless3.networkServer.udp passedUpPk:count 0
attr interpolationmode none
attr recordingmode count
attr source packetSentToUpper
attr title "packets passed up, count"
scalar Wireless3.networkServer.udp droppedPkWrongPort:count 0
attr interpolationmode none
attr recordingmode count
attr source packetDropReasonIsNoPortFound(packetDropped)
attr title "packets dropped (wrong port), count"
scalar Wireless3.networkServer.udp droppedPkBadChecksum:count 0
attr interpolationmode none
attr recordingmode count
attr source packetDropReasonIsIncorrectlyReceived(packetDropped)
attr title "packets dropped (checksum error), count"
par Wireless3.networkServer.tcp typename "\"inet.transportlayer.tcp.Tcp\""
par Wireless3.networkServer.tcp crcMode "\"declared\""
attr enum declared,computed
par Wireless3.networkServer.tcp advertisedWindow 7504
par Wireless3.networkServer.tcp delayedAcksEnabled false
par Wireless3.networkServer.tcp nagleEnabled true
par Wireless3.networkServer.tcp limitedTransmitEnabled false
par Wireless3.networkServer.tcp increasedIWEnabled false
par Wireless3.networkServer.tcp sackSupport false
par Wireless3.networkServer.tcp windowScalingSupport false
par Wireless3.networkServer.tcp windowScalingFactor -1
par Wireless3.networkServer.tcp timestampSupport false
par Wireless3.networkServer.tcp mss 536
par Wireless3.networkServer.tcp msl 120s
attr unit s
par Wireless3.networkServer.tcp tcpAlgorithmClass "\"TcpReno\""
attr enum TcpVegas,TcpWestwood,TcpNewReno,TcpReno,TcpTahoe,TcpNoCongestionControl
par Wireless3.networkServer.tcp useDataNotification false
par Wireless3.networkServer.tcp dupthresh 3
par Wireless3.networkServer.tcp initialSsthresh 4294967295
par Wireless3.networkServer.tcp stopOperationExtraTime 0s
attr unit s
par Wireless3.networkServer.tcp stopOperationTimeout 2s
attr unit s
par Wireless3.networkServer.tcp ecnWillingness false
par Wireless3.networkServer.tcp dctcpGamma 0.0625
par Wireless3.networkServer.tn typename "\"inet.common.MessageDispatcher\""
par Wireless3.networkServer.tn displayStringTextFormat "\"processed %p pk (%l)\""
par Wireless3.networkServer.tn forwardServiceRegistration true
par Wireless3.networkServer.tn forwardProtocolRegistration true
par Wireless3.networkServer.app[0] typename "\"flora.LoRa.NetworkServerApp\""
par Wireless3.networkServer.app[0] localPort 1000
par Wireless3.networkServer.app[0] localAddress "\"\""
par Wireless3.networkServer.app[0] destPort 2000
par Wireless3.networkServer.app[0] evaluateADRinServer false
par Wireless3.networkServer.app[0] headerLength 8B
attr unit B
par Wireless3.networkServer.app[0] adrMethod "\"avg\""
par Wireless3.networkServer.app[0] adrDeviceMargin 15
scalar Wireless3.networkServer.app[0] LoRa_NS_DER 0
statistic Wireless3.networkServer.app[0] receivedRSSI
field count 0
field mean nan
field stddev nan
field min nan
field max nan
field sum 0
field sqrsum 0
bin	-inf	0
bin	0	0
bin	1	0
scalar Wireless3.networkServer.app[0] totalReceivedPackets 0
scalar Wireless3.networkServer.app[0] "counterUniqueReceivedPacketsPerSF SF7" 0
scalar Wireless3.networkServer.app[0] "counterUniqueReceivedPacketsPerSF SF8" 0
scalar Wireless3.networkServer.app[0] "counterUniqueReceivedPacketsPerSF SF9" 0
scalar Wireless3.networkServer.app[0] "counterUniqueReceivedPacketsPerSF SF10" 0
scalar Wireless3.networkServer.app[0] "counterUniqueReceivedPacketsPerSF SF11" 0
scalar Wireless3.networkServer.app[0] "counterUniqueReceivedPacketsPerSF SF12" 0
scalar Wireless3.networkServer.app[0] "DER SF7" 0
scalar Wireless3.networkServer.app[0] "DER SF8" 0
scalar Wireless3.networkServer.app[0] "DER SF9" 0
scalar Wireless3.networkServer.app[0] "DER SF10" 0
scalar Wireless3.networkServer.app[0] "DER SF11" 0
scalar Wireless3.networkServer.app[0] "DER SF12" 0
scalar Wireless3.networkServer.app[0] LoRa_ServerPacketReceived:count 0
attr recordingmode count
attr source LoRa_ServerPacketReceived
par Wireless3.networkServer.at typename "\"inet.common.MessageDispatcher\""
par Wireless3.networkServer.at displayStringTextFormat "\"processed %p pk (%l)\""
par Wireless3.networkServer.at forwardServiceRegistration true
par Wireless3.networkServer.at forwardProtocolRegistration true
par Wireless3.networkServer typename "\"inet.node.inet.StandardHost\""
par Wireless3.networkServer hasStatus false
par Wireless3.networkServer osgModel "\"\""
par Wireless3.networkServer osgModelColor "\"\""
par Wireless3.networkServer canvasImage "\"\""
par Wireless3.networkServer canvasImageColor "\"\""
par Wireless3.networkServer recordPcap false
par Wireless3.networkServer numPcapRecorders 0
par Wireless3.networkServer numLoInterfaces 1
par Wireless3.networkServer numWlanInterfaces 0
par Wireless3.networkServer numEthInterfaces 0
par Wireless3.networkServer numPppInterfaces 0
par Wireless3.networkServer numTunInterfaces 0
par Wireless3.networkServer numVirtInterfaces 0
par Wireless3.networkServer fcsMode "\"declared\""
attr enum declared,computed
par Wireless3.networkServer hasIpv4 true
par Wireless3.networkServer hasIpv6 false
par Wireless3.networkServer hasGn false
par Wireless3.networkServer forwarding false
par Wireless3.networkServer multicastForwarding false
par Wireless3.networkServer hasUdp true
par Wireless3.networkServer hasTcp true
par Wireless3.networkServer hasSctp false
par Wireless3.networkServer numApps 1
par Wireless3.gateway.ethg$i[0].channel typename "\"ned.IdealChannel\""
par Wireless3.gateway.eth[0].phys$o.channel typename "\"ned.IdealChannel\""
par Wireless3.gateway.at typename "\"inet.common.MessageDispatcher\""
par Wireless3.gateway.at displayStringTextFormat "\"processed %p pk (%l)\""
par Wireless3.gateway.at forwardServiceRegistration true
par Wireless3.gateway.at forwardProtocolRegistration true
par Wireless3.gateway.tn typename "\"inet.common.MessageDispatcher\""
par Wireless3.gateway.tn displayStringTextFormat "\"processed %p pk (%l)\""
par Wireless3.gateway.tn forwardServiceRegistration true
par Wireless3.gateway.tn forwardProtocolRegistration true
par Wireless3.gateway.nl typename "\"inet.common.MessageDispatcher\""
par Wireless3.gateway.nl displayStringTextFormat "\"processed %p pk (%l)\""
par Wireless3.gateway.nl forwardServiceRegistration true
par Wireless3.gateway.nl forwardProtocolRegistration true
par Wireless3.gateway.cb typename "\"inet.common.MessageDispatcher\""
par Wireless3.gateway.cb displayStringTextFormat "\"processed %p pk (%l)\""
par Wireless3.gateway.cb forwardServiceRegistration true
par Wireless3.gateway.cb forwardProtocolRegistration true
par Wireless3.gateway.bl typename "\"inet.common.MessageDispatcher\""
par Wireless3.gateway.bl displayStringTextFormat "\"processed %p pk (%l)\""
par Wireless3.gateway.bl forwardServiceRegistration true
par Wireless3.gateway.bl forwardProtocolRegistration true
par Wireless3.gateway.li typename "\"inet.common.MessageDispatcher\""
par Wireless3.gateway.li displayStringTextFormat "\"processed %p pk (%l)\""
par Wireless3.gateway.li forwardServiceRegistration true
par Wireless3.gateway.li forwardProtocolRegistration true
par Wireless3.gateway.interfaceTable typename "\"inet.networklayer.common.InterfaceTable\""
par Wireless3.gateway.interfaceTable displayAddresses false
par Wireless3.gateway.mobility typename "\"inet.mobility.static.StationaryMobility\""
par Wireless3.gateway.mobility subjectModule "\"^\""
par Wireless3.gateway.mobility coordinateSystemModule "\"\""
par Wireless3.gateway.mobility displayStringTextFormat "\"p: %p\\nv: %v\""
attr mutable ""
par Wireless3.gateway.mobility updateDisplayString true
par Wireless3.gateway.mobility constraintAreaMinX "-inf m"
attr unit m
par Wireless3.gateway.mobility constraintAreaMinY "-inf m"
attr unit m
par Wireless3.gateway.mobility constraintAreaMinZ "-inf m"
attr unit m
par Wireless3.gateway.mobility constraintAreaMaxX "inf m"
attr unit m
par Wireless3.gateway.mobility constraintAreaMaxY "inf m"
attr unit m
par Wireless3.gateway.mobility constraintAreaMaxZ "inf m"
attr unit m
par Wireless3.gateway.mobility initialX 250m
attr unit m
par Wireless3.gateway.mobility initialY 150m
attr unit m
par Wireless3.gateway.mobility initialZ 0m
attr unit m
par Wireless3.gateway.mobility initialLatitude "nan deg"
attr unit deg
par Wireless3.gateway.mobility initialLongitude "nan deg"
attr unit deg
par Wireless3.gateway.mobility initialAltitude 0m
attr unit m
par Wireless3.gateway.mobility initialHeading 0deg
attr unit deg
par Wireless3.gateway.mobility initialElevation 0deg
attr unit deg
par Wireless3.gateway.mobility initialBank 0deg
attr unit deg
par Wireless3.gateway.mobility initFromDisplayString false
par Wireless3.gateway.mobility updateFromDisplayString true
par Wireless3.gateway.LoRaGWNic.radioIn.channel typename "\"ned.IdealChannel\""
par Wireless3.gateway.LoRaGWNic.mac.upperLayerOut.channel typename "\"ned.IdealChannel\""
par Wireless3.gateway.LoRaGWNic.upperLayerIn.channel typename "\"ned.IdealChannel\""
par Wireless3.gateway.LoRaGWNic.mac typename "\"flora.LoRa.LoRaGWMac\""
par Wireless3.gateway.LoRaGWNic.mac interfaceTableModule "\"Wireless3.gateway.interfaceTable\""
par Wireless3.gateway.LoRaGWNic.mac radioModule "\"^.radio\""
par Wireless3.gateway.LoRaGWNic.mac address "\"0A-AA-00-00-00-01\""
attr mutable ""
par Wireless3.gateway.LoRaGWNic.mac queueModule "\"\""
par Wireless3.gateway.LoRaGWNic.mac maxQueueSize -1
par Wireless3.gateway.LoRaGWNic.mac prioritizeByUP false
par Wireless3.gateway.LoRaGWNic.mac useAck true
par Wireless3.gateway.LoRaGWNic.mac headerLength 8B
attr unit B
par Wireless3.gateway.LoRaGWNic.mac ackLength 8B
attr unit B
par Wireless3.gateway.LoRaGWNic.mac sifsTime 1e-05s
attr unit s
par Wireless3.gateway.LoRaGWNic.mac slotTime 2e-05s
attr unit s
par Wireless3.gateway.LoRaGWNic.mac difsTime 5e-05s
attr unit s
par Wireless3.gateway.LoRaGWNic.mac mtu 1500
par Wireless3.gateway.LoRaGWNic.mac cwMin 31
par Wireless3.gateway.LoRaGWNic.mac cwMax 1023
par Wireless3.gateway.LoRaGWNic.mac cwMulticast 31
par Wireless3.gateway.LoRaGWNic.mac retryLimit 7
scalar Wireless3.gateway.LoRaGWNic.mac GW_forwardedDown 0
scalar Wireless3.gateway.LoRaGWNic.mac GW_droppedDC 0
par Wireless3.gateway.LoRaGWNic.radio.antenna typename "\"inet.physicallayer.wireless.common.antenna.IsotropicAntenna\""
par Wireless3.gateway.LoRaGWNic.radio.antenna mobilityModule "\"^.^.^.mobility\""
par Wireless3.gateway.LoRaGWNic.radio.antenna numAntennas 1
par Wireless3.gateway.LoRaGWNic.radio.transmitter typename "\"flora.LoRaPhy.LoRaTransmitter\""
par Wireless3.gateway.LoRaGWNic.radio.transmitter preambleDuration 0.001s
attr unit s
par Wireless3.gateway.LoRaGWNic.radio.transmitter headerLength 0b
attr unit b
par Wireless3.gateway.LoRaGWNic.radio.transmitter bitrate 250000bps
attr unit bps
par Wireless3.gateway.LoRaGWNic.radio.transmitter power 0.00224W
attr unit W
par Wireless3.gateway.LoRaGWNic.radio.transmitter centerFrequency 2.45e+09Hz
attr unit Hz
par Wireless3.gateway.LoRaGWNic.radio.transmitter bandwidth 250000Hz
attr unit Hz
par Wireless3.gateway.LoRaGWNic.radio.transmitter modulation "\"LoRaModulation\""
scalar Wireless3.gateway.LoRaGWNic.radio.transmitter LoRaTransmissionCreated:count 0
attr recordingmode count
attr source LoRaTransmissionCreated
par Wireless3.gateway.LoRaGWNic.radio.receiver typename "\"flora.LoRaPhy.LoRaReceiver\""
par Wireless3.gateway.LoRaGWNic.radio.receiver snirThreshold -8dB
attr unit dB
par Wireless3.gateway.LoRaGWNic.radio.receiver snirThresholdMode "\"min\""
attr unit min,mean
par Wireless3.gateway.LoRaGWNic.radio.receiver energyDetection -90dBm
attr unit dBm
par Wireless3.gateway.LoRaGWNic.radio.receiver sensitivity -100dBm
attr unit dBm
par Wireless3.gateway.LoRaGWNic.radio.receiver centerFrequency 2.45e+09Hz
attr unit Hz
par Wireless3.gateway.LoRaGWNic.radio.receiver bandwidth 250000Hz
attr unit Hz
par Wireless3.gateway.LoRaGWNic.radio.receiver modulation "\"BPSK\""
par Wireless3.gateway.LoRaGWNic.radio.receiver alohaChannelModel false
scalar Wireless3.gateway.LoRaGWNic.radio.receiver numCollisions 0
scalar Wireless3.gateway.LoRaGWNic.radio.receiver rcvBelowSensitivity 0
scalar Wireless3.gateway.LoRaGWNic.radio.receiver LoRaReceptionCollision:count 0
attr recordingmode count
attr source LoRaReceptionCollision
par Wireless3.gateway.LoRaGWNic.radio typename "\"flora.LoRa.LoRaGWRadio\""
par Wireless3.gateway.LoRaGWNic.radio radioMediumModule "\"radioMedium\""
par Wireless3.gateway.LoRaGWNic.radio energySourceModule "\"\""
par Wireless3.gateway.LoRaGWNic.radio initialRadioMode "\"off\""
attr enum off,sleep,receiver,transmitter,transceiver
par Wireless3.gateway.LoRaGWNic.radio switchingTimes "\"ms 0 0 0 0 0 0 0 0 0 0 0 0 0 0 0 0 0 0 0 0 0 0 0 0 0\""
par Wireless3.gateway.LoRaGWNic.radio sendRawBytes false
par Wireless3.gateway.LoRaGWNic.radio separateTransmissionParts false
par Wireless3.gateway.LoRaGWNic.radio separateReceptionParts false
par Wireless3.gateway.LoRaGWNic.radio displayCommunicationRange false
par Wireless3.gateway.LoRaGWNic.radio displayInterferenceRange false
par Wireless3.gateway.LoRaGWNic.radio centerFrequency 2.45e+09Hz
attr unit Hz
par Wireless3.gateway.LoRaGWNic.radio bandwidth 250000Hz
attr unit Hz
par Wireless3.gateway.LoRaGWNic.radio iAmGateway true
scalar Wireless3.gateway.LoRaGWNic.radio "DER - Data Extraction Rate" 0
scalar Wireless3.gateway.LoRaGWNic.radio LoRaGWRadioReceptionFinishedCorrect:count 0
attr recordingmode count
attr source LoRaGWRadioReceptionFinishedCorrect
scalar Wireless3.gateway.LoRaGWNic.radio LoRaGWRadioReceptionStarted:count 2
attr recordingmode count
attr source LoRaGWRadioReceptionStarted
statistic Wireless3.gateway.LoRaGWNic.radio minSnir:histogram
field count 0
field mean nan
field stddev nan
field min nan
field max nan
field sum 0
field sqrsum 0
attr recordingmode histogram
attr source minimumSnir(packetSentToUpper)
attr title "Min SNIR"
bin	-inf	0
bin	0	0
bin	1	0
statistic Wireless3.gateway.LoRaGWNic.radio packetErrorRate:histogram
field count 0
field mean nan
field stddev nan
field min nan
field max nan
field sum 0
field sqrsum 0
attr recordingmode histogram
attr source packetErrorRate(packetSentToUpper)
attr title "Packet error rate"
bin	-inf	0
bin	0	0
bin	1	0
statistic Wireless3.gateway.LoRaGWNic.radio bitErrorRate:histogram
field count 0
field mean nan
field stddev nan
field min nan
field max nan
field sum 0
field sqrsum 0
attr recordingmode histogram
attr source bitErrorRate(packetSentToUpper)
attr title "Bit error rate"
bin	-inf	0
bin	0	0
bin	1	0
statistic Wireless3.gateway.LoRaGWNic.radio symbolErrorRate:histogram
field count 0
field mean nan
field stddev nan
field min nan
field max nan
field sum 0
field sqrsum 0
attr recordingmode histogram
attr source symbolErrorRate(packetSentToUpper)
attr title "Symbol error rate"
bin	-inf	0
bin	0	0
bin	1	0
scalar Wireless3.gateway.LoRaGWNic.radio transmissionState:count 1
attr interpolationmode sample-hold
attr recordingmode count
attr source transmissionStateChanged
attr title "Radio transmission state, count"
scalar Wireless3.gateway.LoRaGWNic.radio receptionState:count 1
attr interpolationmode sample-hold
attr recordingmode count
attr source receptionStateChanged
attr title "Radio reception state, count"
scalar Wireless3.gateway.LoRaGWNic.radio radioMode:count 3
attr interpolationmode sample-hold
attr recordingmode count
attr source radioModeChanged
attr title "Radio mode, count"
par Wireless3.gateway.LoRaGWNic typename "\"flora.LoRa.LoRaGWNic\""
par Wireless3.gateway.LoRaGWNic displayStringTextFormat "\"%a (%i)\\n%m\""
par Wireless3.gateway.LoRaGWNic recordPcap false
par Wireless3.gateway.LoRaGWNic numPcapRecorders 0
par Wireless3.gateway.LoRaGWNic interfaceTableModule "\"Wireless3.gateway.interfaceTable\""
par Wireless3.gateway.LoRaGWNic energySourceModule "\"\""
par Wireless3.gateway.LoRaGWNic protocol "\"\""
scalar Wireless3.gateway.LoRaGWNic packetDropInterfaceDown:count 0
attr interpolationmode none
attr recordingmode count
attr source packetDropReasonIsInterfaceDown(packetDropped)
attr title "packet drops: interface down, count"
scalar Wireless3.gateway.LoRaGWNic packetDropInterfaceDown:sum(packetBytes) 0
attr interpolationmode none
attr recordingmode sum(packetBytes)
attr source packetDropReasonIsInterfaceDown(packetDropped)
attr title "packet drops: interface down, sum(packetBytes)"
scalar Wireless3.gateway.LoRaGWNic packetDropNoCarrier:count 0
attr interpolationmode none
attr recordingmode count
attr source packetDropReasonIsNoCarrier(packetDropped)
attr title "packet drops: no carrier, count"
scalar Wireless3.gateway.LoRaGWNic packetDropNoCarrier:sum(packetBytes) 0
attr interpolationmode none
attr recordingmode sum(packetBytes)
attr source packetDropReasonIsNoCarrier(packetDropped)
attr title "packet drops: no carrier, sum(packetBytes)"
par Wireless3.gateway.packetForwarder typename "\"flora.LoRa.PacketForwarder\""
par Wireless3.gateway.packetForwarder localPort 2000
par Wireless3.gateway.packetForwarder destAddresses "\"networkServer\""
par Wireless3.gateway.packetForwarder localAddress "\"\""
par Wireless3.gateway.packetForwarder destPort 1000
scalar Wireless3.gateway.packetForwarder LoRa_GW_DER 0
scalar Wireless3.gateway.packetForwarder LoRa_GWPacketReceived:count 0
attr recordingmode count
attr source LoRa_GWPacketReceived
par Wireless3.gateway.eth[0].mac.phys$o.channel typename "\"ned.IdealChannel\""
par Wireless3.gateway.eth[0].phys$i.channel typename "\"ned.IdealChannel\""
par Wireless3.gateway.eth[0].upperLayerIn.channel typename "\"ned.IdealChannel\""
par Wireless3.gateway.eth[0].mac.upperLayerOut.channel typename "\"ned.IdealChannel\""
par Wireless3.gateway.eth[0].queue typename "\"inet.linklayer.ethernet.common.EthernetQueue\""
par Wireless3.gateway.eth[0].queue displayStringTextFormat "\"contains %p pk (%l) pushed %u\\npulled %o removed %r dropped %d\""
par Wireless3.gateway.eth[0].queue packetCapacity 1000
par Wireless3.gateway.eth[0].queue dataCapacity -1b
attr unit b
par Wireless3.gateway.eth[0].queue dropperClass "\"inet::queueing::PacketAtCollectionEndDropper\""
par Wireless3.gateway.eth[0].queue comparatorClass "\"inet::EthernetFrameTypeComparator\""
par Wireless3.gateway.eth[0].queue bufferModule "\"\""
scalar Wireless3.gateway.eth[0].queue queueLength:last 0
attr autoWarmupFilter false
attr interpolationmode sample-hold
attr recordingmode last
attr source "warmup(atomic(constant0(packetPushEnded) + count(packetPushStarted) - count(packetPulled) - count(packetRemoved) - count(packetDropped)))"
attr title "queue length, last"
attr unit pk
scalar Wireless3.gateway.eth[0].queue queueLength:max 0
attr autoWarmupFilter false
attr interpolationmode sample-hold
attr recordingmode max
attr source "warmup(atomic(constant0(packetPushEnded) + count(packetPushStarted) - count(packetPulled) - count(packetRemoved) - count(packetDropped)))"
attr title "queue length, max"
attr unit pk
scalar Wireless3.gateway.eth[0].queue queueLength:timeavg 0
attr autoWarmupFilter false
attr interpolationmode sample-hold
attr recordingmode timeavg
attr source "warmup(atomic(constant0(packetPushEnded) + count(packetPushStarted) - count(packetPulled) - count(packetRemoved) - count(packetDropped)))"
attr title "queue length, timeavg"
attr unit pk
scalar Wireless3.gateway.eth[0].queue queueBitLength:last 0
attr autoWarmupFilter false
attr interpolationmode sample-hold
attr recordingmode last
attr source "warmup(atomic(constant0(packetPushEnded) + sum(packetLength(packetPushStarted)) - sum(packetLength(packetPulled)) - sum(packetLength(packetRemoved)) - sum(packetLength(packetDropped))))"
attr title "queue bit length, last"
attr unit b
scalar Wireless3.gateway.eth[0].queue queueBitLength:max 0
attr autoWarmupFilter false
attr interpolationmode sample-hold
attr recordingmode max
attr source "warmup(atomic(constant0(packetPushEnded) + sum(packetLength(packetPushStarted)) - sum(packetLength(packetPulled)) - sum(packetLength(packetRemoved)) - sum(packetLength(packetDropped))))"
attr title "queue bit length, max"
attr unit b
scalar Wireless3.gateway.eth[0].queue queueBitLength:timeavg 0
attr autoWarmupFilter false
attr interpolationmode sample-hold
attr recordingmode timeavg
attr source "warmup(atomic(constant0(packetPushEnded) + sum(packetLength(packetPushStarted)) - sum(packetLength(packetPulled)) - sum(packetLength(packetRemoved)) - sum(packetLength(packetDropped))))"
attr title "queue bit length, timeavg"
attr unit b
statistic Wireless3.gateway.eth[0].queue queueingTime:histogram
field count 0
field mean nan
field stddev nan
field min nan
field max nan
field sum 0
field sqrsum 0
attr interpolationmode none
attr recordingmode histogram
attr source queueingTime(packetPulled)
attr title "queueing times"
attr unit s
bin	-inf	0
bin	0	0
bin	1	0
scalar Wireless3.gateway.eth[0].queue outgoingPackets:count 0
attr recordingmode count
attr source packetPulled
attr title "outgoing packets, count"
attr unit pk
scalar Wireless3.gateway.eth[0].queue outgoingPacketLengths:sum 0
attr interpolationmode none
attr recordingmode sum
attr source packetLength(packetPulled)
attr title "outgoing packet lengths, sum"
attr unit b
statistic Wireless3.gateway.eth[0].queue outgoingPacketLengths:histogram
field count 0
field mean nan
field stddev nan
field min nan
field max nan
field sum 0
field sqrsum 0
attr interpolationmode none
attr recordingmode histogram
attr source packetLength(packetPulled)
attr title "outgoing packet lengths"
attr unit b
bin	-inf	0
bin	0	0
bin	1	0
statistic Wireless3.gateway.eth[0].queue flowQueueingTime:histogram
field count 0
field mean nan
field stddev nan
field min nan
field max nan
field sum 0
field sqrsum 0
attr interpolationmode none
attr recordingmode histogram
attr source queueingTime(demuxFlow(packetPulled))
attr title "flow queueing times"
attr unit s
bin	-inf	0
bin	0	0
bin	1	0
scalar Wireless3.gateway.eth[0].queue incomingPackets:count 0
attr recordingmode count
attr source packetPushStarted
attr title "incoming packets, count"
[...]
par Wireless3.host[18] numApps 1
par Wireless3.host[18] deploymentType "\"\""
par Wireless3.host[18] maxGatewayDistance 2000
par Wireless3.host[18] gatewayX 250
par Wireless3.host[18] gatewayY 150
par Wireless3.host[19].interfaceTable typename "\"inet.networklayer.common.InterfaceTable\""
par Wireless3.host[19].interfaceTable displayAddresses false
par Wireless3.host[19].mobility typename "\"inet.mobility.static.StationaryMobility\""
par Wireless3.host[19].mobility subjectModule "\"^\""
par Wireless3.host[19].mobility coordinateSystemModule "\"\""
par Wireless3.host[19].mobility displayStringTextFormat "\"p: %p\\nv: %v\""
attr mutable ""
par Wireless3.host[19].mobility updateDisplayString true
par Wireless3.host[19].mobility constraintAreaMinX "-inf m"
attr unit m
par Wireless3.host[19].mobility constraintAreaMinY "-inf m"
attr unit m
par Wireless3.host[19].mobility constraintAreaMinZ "-inf m"
attr unit m
par Wireless3.host[19].mobility constraintAreaMaxX "inf m"
attr unit m
par Wireless3.host[19].mobility constraintAreaMaxY "inf m"
attr unit m
par Wireless3.host[19].mobility constraintAreaMaxZ "inf m"
attr unit m
par Wireless3.host[19].mobility initialX 193m
attr unit m
par Wireless3.host[19].mobility initialY 163m
attr unit m
par Wireless3.host[19].mobility initialZ 0m
attr unit m
par Wireless3.host[19].mobility initialLatitude "nan deg"
attr unit deg
par Wireless3.host[19].mobility initialLongitude "nan deg"
attr unit deg
par Wireless3.host[19].mobility initialAltitude 0m
attr unit m
par Wireless3.host[19].mobility initialHeading 0deg
attr unit deg
par Wireless3.host[19].mobility initialElevation 0deg
attr unit deg
par Wireless3.host[19].mobility initialBank 0deg
attr unit deg
par Wireless3.host[19].mobility initFromDisplayString false
par Wireless3.host[19].mobility updateFromDisplayString true
par Wireless3.host[19].LoRaNic.radioIn.channel typename "\"ned.IdealChannel\""
par Wireless3.host[19].LoRaNic.mac.upperLayerOut.channel typename "\"ned.IdealChannel\""
par Wireless3.host[19].LoRaNic.upperLayerIn.channel typename "\"ned.IdealChannel\""
par Wireless3.host[19].LoRaNic.queue typename "\"inet.queueing.queue.DropTailQueue\""
par Wireless3.host[19].LoRaNic.queue displayStringTextFormat "\"contains %p pk (%l) pushed %u\\npulled %o removed %r dropped %d\""
par Wireless3.host[19].LoRaNic.queue packetCapacity -1
par Wireless3.host[19].LoRaNic.queue dataCapacity -1b
attr unit b
par Wireless3.host[19].LoRaNic.queue dropperClass "\"inet::queueing::PacketAtCollectionEndDropper\""
par Wireless3.host[19].LoRaNic.queue comparatorClass "\"\""
par Wireless3.host[19].LoRaNic.queue bufferModule "\"\""
scalar Wireless3.host[19].LoRaNic.queue queueLength:last 0
attr autoWarmupFilter false
attr interpolationmode sample-hold
attr recordingmode last
attr source "warmup(atomic(constant0(packetPushEnded) + count(packetPushStarted) - count(packetPulled) - count(packetRemoved) - count(packetDropped)))"
attr title "queue length, last"
attr unit pk
scalar Wireless3.host[19].LoRaNic.queue queueLength:max 0
attr autoWarmupFilter false
attr interpolationmode sample-hold
attr recordingmode max
attr source "warmup(atomic(constant0(packetPushEnded) + count(packetPushStarted) - count(packetPulled) - count(packetRemoved) - count(packetDropped)))"
attr title "queue length, max"
attr unit pk
scalar Wireless3.host[19].LoRaNic.queue queueLength:timeavg 0
attr autoWarmupFilter false
attr interpolationmode sample-hold
attr recordingmode timeavg
attr source "warmup(atomic(constant0(packetPushEnded) + count(packetPushStarted) - count(packetPulled) - count(packetRemoved) - count(packetDropped)))"
attr title "queue length, timeavg"
attr unit pk
scalar Wireless3.host[19].LoRaNic.queue queueBitLength:last 0
attr autoWarmupFilter false
attr interpolationmode sample-hold
attr recordingmode last
attr source "warmup(atomic(constant0(packetPushEnded) + sum(packetLength(packetPushStarted)) - sum(packetLength(packetPulled)) - sum(packetLength(packetRemoved)) - sum(packetLength(packetDropped))))"
attr title "queue bit length, last"
attr unit b
scalar Wireless3.host[19].LoRaNic.queue queueBitLength:max 0
attr autoWarmupFilter false
attr interpolationmode sample-hold
attr recordingmode max
attr source "warmup(atomic(constant0(packetPushEnded) + sum(packetLength(packetPushStarted)) - sum(packetLength(packetPulled)) - sum(packetLength(packetRemoved)) - sum(packetLength(packetDropped))))"
attr title "queue bit length, max"
attr unit b
scalar Wireless3.host[19].LoRaNic.queue queueBitLength:timeavg 0
attr autoWarmupFilter false
attr interpolationmode sample-hold
attr recordingmode timeavg
attr source "warmup(atomic(constant0(packetPushEnded) + sum(packetLength(packetPushStarted)) - sum(packetLength(packetPulled)) - sum(packetLength(packetRemoved)) - sum(packetLength(packetDropped))))"
attr title "queue bit length, timeavg"
attr unit b
statistic Wireless3.host[19].LoRaNic.queue queueingTime:histogram
field count 0
field mean nan
field stddev nan
field min nan
field max nan
field sum 0
field sqrsum 0
attr interpolationmode none
attr recordingmode histogram
attr source queueingTime(packetPulled)
attr title "queueing times"
attr unit s
bin	-inf	0
bin	0	0
bin	1	0
scalar Wireless3.host[19].LoRaNic.queue outgoingPackets:count 0
attr recordingmode count
attr source packetPulled
attr title "outgoing packets, count"
attr unit pk
scalar Wireless3.host[19].LoRaNic.queue outgoingPacketLengths:sum 0
attr interpolationmode none
attr recordingmode sum
attr source packetLength(packetPulled)
attr title "outgoing packet lengths, sum"
attr unit b
statistic Wireless3.host[19].LoRaNic.queue outgoingPacketLengths:histogram
field count 0
field mean nan
field stddev nan
field min nan
field max nan
field sum 0
field sqrsum 0
attr interpolationmode none
attr recordingmode histogram
attr source packetLength(packetPulled)
attr title "outgoing packet lengths"
attr unit b
bin	-inf	0
bin	0	0
bin	1	0
statistic Wireless3.host[19].LoRaNic.queue flowQueueingTime:histogram
field count 0
field mean nan
field stddev nan
field min nan
field max nan
field sum 0
field sqrsum 0
attr interpolationmode none
attr recordingmode histogram
attr source queueingTime(demuxFlow(packetPulled))
attr title "flow queueing times"
attr unit s
bin	-inf	0
bin	0	0
bin	1	0
scalar Wireless3.host[19].LoRaNic.queue incomingPackets:count 0
attr recordingmode count
attr source packetPushStarted
attr title "incoming packets, count"
attr unit pk
scalar Wireless3.host[19].LoRaNic.queue incomingPacketLengths:sum 0
attr interpolationmode none
attr recordingmode sum
attr source packetLength(packetPushStarted)
attr title "incoming packet lengths, sum"
attr unit b
statistic Wireless3.host[19].LoRaNic.queue incomingPacketLengths:histogram
field count 0
field mean nan
field stddev nan
field min nan
field max nan
field sum 0
field sqrsum 0
attr interpolationmode none
attr recordingmode histogram
attr source packetLength(packetPushStarted)
attr title "incoming packet lengths"
attr unit b
bin	-inf	0
bin	0	0
bin	1	0
scalar Wireless3.host[19].LoRaNic.queue droppedPacketsQueueOverflow:count 0
attr interpolationmode none
attr recordingmode count
attr source packetDropReasonIsQueueOverflow(packetDropped)
attr title "dropped packets: queue overflow, count"
attr unit pk
scalar Wireless3.host[19].LoRaNic.queue droppedPacketLengthsQueueOverflow:sum 0
attr interpolationmode none
attr recordingmode sum
attr source packetLength(packetDropReasonIsQueueOverflow(packetDropped))
attr title "dropped packet lengths: queue overflow, sum"
attr unit b
par Wireless3.host[19].LoRaNic.mac typename "\"flora.LoRa.LoRaMac\""
par Wireless3.host[19].LoRaNic.mac interfaceTableModule "\"Wireless3.host[19].interfaceTable\""
par Wireless3.host[19].LoRaNic.mac radioModule "\"^.radio\""
par Wireless3.host[19].LoRaNic.mac address "\"0A-AA-00-00-00-15\""
attr mutable ""
par Wireless3.host[19].LoRaNic.mac fcsMode "\"declared\""
attr enum declared,computed
par Wireless3.host[19].LoRaNic.mac useAck true
par Wireless3.host[19].LoRaNic.mac bitrate 250bps
attr unit bps
par Wireless3.host[19].LoRaNic.mac headerLength 17B
attr unit B
par Wireless3.host[19].LoRaNic.mac ackLength 14B
attr unit B
par Wireless3.host[19].LoRaNic.mac sifsTime 1e-05s
attr unit s
par Wireless3.host[19].LoRaNic.mac slotTime 2e-05s
attr unit s
par Wireless3.host[19].LoRaNic.mac difsTime 5e-05s
attr unit s
par Wireless3.host[19].LoRaNic.mac ackTimeout 0.44803s
attr unit s
par Wireless3.host[19].LoRaNic.mac mtu 1500
par Wireless3.host[19].LoRaNic.mac cwMin 31
par Wireless3.host[19].LoRaNic.mac cwMax 1023
par Wireless3.host[19].LoRaNic.mac cwMulticast 31
par Wireless3.host[19].LoRaNic.mac retryLimit 7
scalar Wireless3.host[19].LoRaNic.mac numRetry 0
scalar Wireless3.host[19].LoRaNic.mac numSentWithoutRetry 0
scalar Wireless3.host[19].LoRaNic.mac numGivenUp 0
scalar Wireless3.host[19].LoRaNic.mac numSent 0
scalar Wireless3.host[19].LoRaNic.mac numReceived 0
scalar Wireless3.host[19].LoRaNic.mac numSentBroadcast 0
scalar Wireless3.host[19].LoRaNic.mac numReceivedBroadcast 0
scalar Wireless3.host[19].LoRaNic.mac packetDropIncorrectlyReceived:count 0
attr interpolationmode none
attr recordingmode count
attr source packetDropReasonIsIncorrectlyReceived(packetDropped)
attr title "packet drop: incorrectly received, count"
scalar Wireless3.host[19].LoRaNic.mac packetDropIncorrectlyReceived:sum(packetBytes) 0
attr interpolationmode none
attr recordingmode sum(packetBytes)
attr source packetDropReasonIsIncorrectlyReceived(packetDropped)
attr title "packet drop: incorrectly received, sum(packetBytes)"
scalar Wireless3.host[19].LoRaNic.mac packetDropNotAddressedToUs:count 0
attr interpolationmode none
attr recordingmode count
attr source packetDropReasonIsNotAddressedToUs(packetDropped)
attr title "packet drop: not addressed to us, count"
scalar Wireless3.host[19].LoRaNic.mac packetDropNotAddressedToUs:sum(packetBytes) 0
attr interpolationmode none
attr recordingmode sum(packetBytes)
attr source packetDropReasonIsNotAddressedToUs(packetDropped)
attr title "packet drop: not addressed to us, sum(packetBytes)"
scalar Wireless3.host[19].LoRaNic.mac packetDropQueueOverflow:count 0
attr interpolationmode none
attr recordingmode count
attr source packetDropReasonIsQueueOverflow(packetDropped)
attr title "packet drop: queue overflow, count"
scalar Wireless3.host[19].LoRaNic.mac packetDropQueueOverflow:sum(packetBytes) 0
attr interpolationmode none
attr recordingmode sum(packetBytes)
attr source packetDropReasonIsQueueOverflow(packetDropped)
attr title "packet drop: queue overflow, sum(packetBytes)"
scalar Wireless3.host[19].LoRaNic.mac packetDropRetryLimitReached:count 0
attr interpolationmode none
attr recordingmode count
attr source packetDropReasonIsRetryLimitReached(packetDropped)
attr title "packet drop: retry limit reached, count"
scalar Wireless3.host[19].LoRaNic.mac packetDropRetryLimitReached:sum(packetBytes) 0
attr interpolationmode none
attr recordingmode sum(packetBytes)
attr source packetDropReasonIsRetryLimitReached(packetDropped)
attr title "packet drop: retry limit reached, sum(packetBytes)"
scalar Wireless3.host[19].LoRaNic.mac linkBroken:count 0
attr interpolationmode none
attr recordingmode count
attr source linkBroken
attr title "link break, count"
par Wireless3.host[19].LoRaNic.radio.antenna typename "\"inet.physicallayer.wireless.common.antenna.IsotropicAntenna\""
par Wireless3.host[19].LoRaNic.radio.antenna mobilityModule "\"^.^.^.mobility\""
par Wireless3.host[19].LoRaNic.radio.antenna numAntennas 1
par Wireless3.host[19].LoRaNic.radio.transmitter typename "\"flora.LoRaPhy.LoRaTransmitter\""
par Wireless3.host[19].LoRaNic.radio.transmitter preambleDuration 0.001s
attr unit s
par Wireless3.host[19].LoRaNic.radio.transmitter headerLength 0b
attr unit b
par Wireless3.host[19].LoRaNic.radio.transmitter bitrate 250000bps
attr unit bps
par Wireless3.host[19].LoRaNic.radio.transmitter power 0.025118W
attr unit W
par Wireless3.host[19].LoRaNic.radio.transmitter centerFrequency 8.68e+08Hz
attr unit Hz
par Wireless3.host[19].LoRaNic.radio.transmitter bandwidth 250000Hz
attr unit Hz
par Wireless3.host[19].LoRaNic.radio.transmitter modulation "\"LoRaModulation\""
scalar Wireless3.host[19].LoRaNic.radio.transmitter LoRaTransmissionCreated:count 0
attr recordingmode count
attr source LoRaTransmissionCreated
par Wireless3.host[19].LoRaNic.radio.receiver typename "\"flora.LoRaPhy.LoRaReceiver\""
par Wireless3.host[19].LoRaNic.radio.receiver snirThreshold -8dB
attr unit dB
par Wireless3.host[19].LoRaNic.radio.receiver snirThresholdMode "\"min\""
attr unit min,mean
par Wireless3.host[19].LoRaNic.radio.receiver energyDetection -117dBm
attr unit dBm
par Wireless3.host[19].LoRaNic.radio.receiver sensitivity -117dBm
attr unit dBm
par Wireless3.host[19].LoRaNic.radio.receiver centerFrequency 8.68e+08Hz
attr unit Hz
par Wireless3.host[19].LoRaNic.radio.receiver bandwidth 250000Hz
attr unit Hz
par Wireless3.host[19].LoRaNic.radio.receiver modulation "\"BPSK\""
par Wireless3.host[19].LoRaNic.radio.receiver alohaChannelModel false
scalar Wireless3.host[19].LoRaNic.radio.receiver numCollisions 0
scalar Wireless3.host[19].LoRaNic.radio.receiver rcvBelowSensitivity 0
scalar Wireless3.host[19].LoRaNic.radio.receiver LoRaReceptionCollision:count 0
attr recordingmode count
attr source LoRaReceptionCollision
par Wireless3.host[19].LoRaNic.radio.IdealEpEnergyStorage typename "\"inet.power.storage.IdealEpEnergyStorage\""
scalar Wireless3.host[19].LoRaNic.radio.IdealEpEnergyStorage residualEnergyCapacity:last nan
attr interpolationmode linear
attr recordingmode last
attr source residualEnergyCapacityChanged
attr title "Residual energy capacity, last"
par Wireless3.host[19].LoRaNic.radio typename "\"flora.LoRa.LoRaRadio\""
par Wireless3.host[19].LoRaNic.radio radioMediumModule "\"radioMedium\""
par Wireless3.host[19].LoRaNic.radio energySourceModule "\"\""
par Wireless3.host[19].LoRaNic.radio initialRadioMode "\"off\""
attr enum off,sleep,receiver,transmitter,transceiver
par Wireless3.host[19].LoRaNic.radio switchingTimes "\"ms 0 0 0 0 0 0 0 0 0 0 0 0 0 0 0 0 0 0 0 0 0 0 0 0 0\""
par Wireless3.host[19].LoRaNic.radio sendRawBytes false
par Wireless3.host[19].LoRaNic.radio separateTransmissionParts false
par Wireless3.host[19].LoRaNic.radio separateReceptionParts false
par Wireless3.host[19].LoRaNic.radio displayCommunicationRange false
par Wireless3.host[19].LoRaNic.radio displayInterferenceRange false
par Wireless3.host[19].LoRaNic.radio centerFrequency 8.68e+08Hz
attr unit Hz
par Wireless3.host[19].LoRaNic.radio bandwidth 250000Hz
attr unit Hz
par Wireless3.host[19].LoRaNic.radio iAmGateway false
statistic Wireless3.host[19].LoRaNic.radio minSnir:histogram
field count 0
field mean nan
field stddev nan
field min nan
field max nan
field sum 0
field sqrsum 0
attr recordingmode histogram
attr source minimumSnir(packetSentToUpper)
attr title "Min SNIR"
bin	-inf	0
bin	0	0
bin	1	0
statistic Wireless3.host[19].LoRaNic.radio packetErrorRate:histogram
field count 0
field mean nan
field stddev nan
field min nan
field max nan
field sum 0
field sqrsum 0
attr recordingmode histogram
attr source packetErrorRate(packetSentToUpper)
attr title "Packet error rate"
bin	-inf	0
bin	0	0
bin	1	0
statistic Wireless3.host[19].LoRaNic.radio bitErrorRate:histogram
field count 0
field mean nan
field stddev nan
field min nan
field max nan
field sum 0
field sqrsum 0
attr recordingmode histogram
attr source bitErrorRate(packetSentToUpper)
attr title "Bit error rate"
bin	-inf	0
bin	0	0
bin	1	0
statistic Wireless3.host[19].LoRaNic.radio symbolErrorRate:histogram
field count 0
field mean nan
field stddev nan
field min nan
field max nan
field sum 0
field sqrsum 0
attr recordingmode histogram
attr source symbolErrorRate(packetSentToUpper)
attr title "Symbol error rate"
bin	-inf	0
bin	0	0
bin	1	0
scalar Wireless3.host[19].LoRaNic.radio transmissionState:count 0
attr interpolationmode sample-hold
attr recordingmode count
attr source transmissionStateChanged
attr title "Radio transmission state, count"
scalar Wireless3.host[19].LoRaNic.radio receptionState:count 0
attr interpolationmode sample-hold
attr recordingmode count
attr source receptionStateChanged
attr title "Radio reception state, count"
scalar Wireless3.host[19].LoRaNic.radio radioMode:count 3
attr interpolationmode sample-hold
attr recordingmode count
attr source radioModeChanged
attr title "Radio mode, count"
par Wireless3.host[19].LoRaNic typename "\"flora.LoRa.LoRaNic\""
par Wireless3.host[19].LoRaNic displayStringTextFormat "\"%a (%i)\\n%m\""
par Wireless3.host[19].LoRaNic recordPcap false
par Wireless3.host[19].LoRaNic numPcapRecorders 0
par Wireless3.host[19].LoRaNic interfaceTableModule "\"Wireless3.host[19].interfaceTable\""
par Wireless3.host[19].LoRaNic energySourceModule "\"\""
par Wireless3.host[19].LoRaNic protocol "\"\""
scalar Wireless3.host[19].LoRaNic packetDropInterfaceDown:count 0
attr interpolationmode none
attr recordingmode count
attr source packetDropReasonIsInterfaceDown(packetDropped)
attr title "packet drops: interface down, count"
scalar Wireless3.host[19].LoRaNic packetDropInterfaceDown:sum(packetBytes) 0
attr interpolationmode none
attr recordingmode sum(packetBytes)
attr source packetDropReasonIsInterfaceDown(packetDropped)
attr title "packet drops: interface down, sum(packetBytes)"
scalar Wireless3.host[19].LoRaNic packetDropNoCarrier:count 0
attr interpolationmode none
attr recordingmode count
attr source packetDropReasonIsNoCarrier(packetDropped)
attr title "packet drops: no carrier, count"
scalar Wireless3.host[19].LoRaNic packetDropNoCarrier:sum(packetBytes) 0
attr interpolationmode none
attr recordingmode sum(packetBytes)
attr source packetDropReasonIsNoCarrier(packetDropped)
attr title "packet drops: no carrier, sum(packetBytes)"
par Wireless3.host[19].app[0] typename "\"flora.LoRaApp.SimpleLoRaApp\""
par Wireless3.host[19].app[0] numberOfPacketsToSend 0
par Wireless3.host[19].app[0] timeToFirstPacket exponential(5s)
attr unit s
par Wireless3.host[19].app[0] timeToNextPacket exponential(10s)
attr unit s
par Wireless3.host[19].app[0] initialLoRaTP 14dBm
attr unit dBm
par Wireless3.host[19].app[0] initialLoRaCF 9.15e+08Hz
attr unit Hz
par Wireless3.host[19].app[0] initialLoRaSF 10
par Wireless3.host[19].app[0] initialLoRaBW 125000Hz
attr unit Hz
par Wireless3.host[19].app[0] initialLoRaCR 4
par Wireless3.host[19].app[0] initialUseHeader true
par Wireless3.host[19].app[0] evaluateADRinNode false
par Wireless3.host[19].app[0] dataSize 10B
attr unit B
par Wireless3.host[19].app[0] destNodeIds "\"-1\""
par Wireless3.host[19].app[0] srcNodeId 19
par Wireless3.host[19].app[0] nextHopId -1
scalar Wireless3.host[19].app[0] positionX 193
scalar Wireless3.host[19].app[0] positionY 163
scalar Wireless3.host[19].app[0] finalTP 14
scalar Wireless3.host[19].app[0] finalSF 10
scalar Wireless3.host[19].app[0] sentPackets 0
scalar Wireless3.host[19].app[0] receivedADRCommands 0
scalar Wireless3.host[19].app[0] LoRa_AppPacketSent:count 0
attr recordingmode count
attr source LoRa_AppPacketSent
par Wireless3.host[19] typename "\"flora.LoraNode.LoRaNode\""
par Wireless3.host[19] numApps 1
par Wireless3.host[19] deploymentType "\"\""
par Wireless3.host[19] maxGatewayDistance 2000
par Wireless3.host[19] gatewayX 250
par Wireless3.host[19] gatewayY 150
par Wireless3 typename "\"wireless3.simulations.Wireless3\""
par Wireless3 numHost 20
par Wireless3 width 1198m
attr unit m
par Wireless3 height 494m
attr unit m

