version 3
run General-1-20260424-07:12:02-16548
attr configname General
attr datetime 20260424-07:12:02
attr datetimef 20260424-071202
attr experiment General
attr inifile C:/OmnetDos/test_omnet/simulations/omnetpp.ini
attr iterationvars "$pathlosstype=\"Multimodel\""
attr iterationvarsd pathlosstype=Multimodel
attr iterationvarsf pathlosstype=Multimodel-
attr measurement "$pathlosstype=\"Multimodel\""
attr network wireless3.simulations.Wireless3
attr processid 16548
attr repetition 0
attr replication #0
attr resultdir results
attr runnumber 1
attr seedset 1
itervar pathlosstype "\"Multimodel\""
config image-path C:/OmnetDos/inet4.4/images;C:/OmnetDos/flora-1.1.0/images
config network wireless3.simulations.Wireless3
config sim-time-limit 600s
config simtime-resolution -11
config *.gateway.mobility.typename StationaryMobility
config *.gateway.mobility.initialX 250m
config *.gateway.mobility.initialY 150m
config *.gateway.mobility.initialZ 0m
config *.gateway.mobility.initFromDisplayString false
config *.networkServer.mobility.typename StationaryMobility
config *.networkServer.mobility.initialX 400m
config *.networkServer.mobility.initialY 50m
config *.networkServer.mobility.initialZ 0m
config *.networkServer.mobility.initFromDisplayString false
config *.host[0].mobility.initialX 1000.0m
config *.host[0].mobility.initialY 7.27m
config *.host[0].mobility.initialZ 0m
config *.host[1].mobility.initialX 1069.01m
config *.host[1].mobility.initialY 54.77m
config *.host[1].mobility.initialZ 0m
config *.host[2].mobility.initialX 1079.15m
config *.host[2].mobility.initialY 110.1m
config *.host[2].mobility.initialZ 0m
config *.host[3].mobility.initialX 1011.05m
config *.host[3].mobility.initialY 14.87m
config *.host[3].mobility.initialZ 0m
config *.host[4].mobility.initialX 1020.87m
config *.host[4].mobility.initialY 21.63m
config *.host[4].mobility.initialZ 0m
config *.host[5].mobility.initialX 1027.2m
config *.host[5].mobility.initialY 25.99m
config *.host[5].mobility.initialZ 0m
config *.host[6].mobility.initialX 1037.15m
config *.host[6].mobility.initialY 32.84m
config *.host[6].mobility.initialZ 0m
config *.host[7].mobility.initialX 1054.81m
config *.host[7].mobility.initialY 45.0m
config *.host[7].mobility.initialZ 0m
config *.host[8].mobility.initialX 1072.72m
config *.host[8].mobility.initialY 75.06m
config *.host[8].mobility.initialZ 0m
config *.host[9].mobility.initialX 1077.68m
config *.host[9].mobility.initialY 102.12m
config *.host[9].mobility.initialZ 0m
config *.host[10].mobility.initialX 1190.44m
config *.host[10].mobility.initialY 54.77m
config *.host[10].mobility.initialZ 0m
config *.host[11].mobility.initialX 1235.93m
config *.host[11].mobility.initialY 0.0m
config *.host[11].mobility.initialZ 0m
config *.host[12].mobility.initialX 1094.3m
config *.host[12].mobility.initialY 72.49m
config *.host[12].mobility.initialZ 0m
config *.host[13].mobility.initialX 1113.87m
config *.host[13].mobility.initialY 71.91m
config *.host[13].mobility.initialZ 0m
config *.host[14].mobility.initialX 1141.65m
config *.host[14].mobility.initialY 65.69m
config *.host[14].mobility.initialZ 0m
config *.host[15].mobility.initialX 1150.81m
config *.host[15].mobility.initialY 63.64m
config *.host[15].mobility.initialZ 0m
config *.host[16].mobility.initialX 1165.59m
config *.host[16].mobility.initialY 60.33m
config *.host[16].mobility.initialZ 0m
config *.host[17].mobility.initialX 1194.43m
config *.host[17].mobility.initialY 49.97m
config *.host[17].mobility.initialZ 0m
config *.host[18].mobility.initialX 1208.17m
config *.host[18].mobility.initialY 33.43m
config *.host[18].mobility.initialZ 0m
config *.host[19].mobility.initialX 1215.18m
config *.host[19].mobility.initialY 24.99m
config *.host[19].mobility.initialZ 0m
config *.host[20].mobility.initialX 1228.89m
config *.host[20].mobility.initialY 8.47m
config *.host[20].mobility.initialZ 0m
config *.host[21].mobility.initialX 1098.41m
config *.host[21].mobility.initialY 75.37m
config *.host[21].mobility.initialZ 0m
config *.host[22].mobility.initialX 1137.76m
config *.host[22].mobility.initialY 102.53m
config *.host[22].mobility.initialZ 0m
config *.host[23].mobility.initialX 1157.26m
config *.host[23].mobility.initialY 116.6m
config *.host[23].mobility.initialZ 0m
config *.host[24].mobility.initialX 1146.06m
config *.host[24].mobility.initialY 171.72m
config *.host[24].mobility.initialZ 0m
config *.host[25].mobility.initialX 1116.97m
config *.host[25].mobility.initialY 88.17m
config *.host[25].mobility.initialZ 0m
config *.host[26].mobility.initialX 1151.28m
config *.host[26].mobility.initialY 146.03m
config *.host[26].mobility.initialZ 0m
config *.numHost 27
config *.width 1235.93m
config *.height 1007.27m
config *.host[*].numApps 1
config *.host[*].app[0].typename SimpleLoRaApp
config *.host[*].app[0].dataSize 10B
config *.host[*].app[0].initialLoRaTP 14dBm
config *.host[*].app[0].initialLoRaCF 915MHz
config *.host[*].app[0].initialLoRaBW 125kHz
config *.host[*].app[0].initialLoRaSF 11
config *.host[*].app[0].initialLoRaCR 4
config *.host[*].app[0].initialUseHeader true
config *.host[*].app[0].evaluateADRinNode false
config *.host[*].app[0].destNodeIds "\"-1\""
config *.host[*].app[0].nextHopId -1
config *.host[0].app[0].destNodeIds "\"3\""
config *.host[0].app[0].srcNodeId 0
config *.host[0].app[0].nextHopId -1
config *.host[0].app[0].timeToFirstPacket exponential(5s)
config *.host[0].app[0].timeToNextPacket exponential(10s)
config *.host[1].app[0].destNodeIds "\"7 8\""
config *.host[1].app[0].srcNodeId 1
config *.host[1].app[0].nextHopId 7
config *.host[1].app[0].timeToFirstPacket exponential(5s)
config *.host[1].app[0].timeToNextPacket exponential(10s)
config *.host[2].app[0].destNodeIds "\"9\""
config *.host[2].app[0].srcNodeId 2
config *.host[2].app[0].nextHopId 9
config *.host[2].app[0].timeToFirstPacket exponential(5s)
config *.host[2].app[0].timeToNextPacket exponential(10s)
config *.host[3].app[0].destNodeIds "\"0 5\""
config *.host[3].app[0].srcNodeId 3
config *.host[3].app[0].nextHopId -1
config *.host[3].app[0].timeToFirstPacket exponential(5s)
config *.host[3].app[0].timeToNextPacket exponential(10s)
config *.host[4].app[0].destNodeIds "\"5 6\""
config *.host[4].app[0].srcNodeId 4
config *.host[4].app[0].nextHopId 5
config *.host[4].app[0].timeToFirstPacket exponential(5s)
config *.host[4].app[0].timeToNextPacket exponential(10s)
config *.host[5].app[0].destNodeIds "\"4 3\""
config *.host[5].app[0].srcNodeId 5
config *.host[5].app[0].nextHopId 3
config *.host[5].app[0].timeToFirstPacket exponential(5s)
config *.host[5].app[0].timeToNextPacket exponential(10s)
config *.host[6].app[0].destNodeIds "\"4 7\""
config *.host[6].app[0].srcNodeId 6
config *.host[6].app[0].nextHopId 4
config *.host[6].app[0].timeToFirstPacket exponential(5s)
config *.host[6].app[0].timeToNextPacket exponential(10s)
config *.host[7].app[0].destNodeIds "\"1 6\""
config *.host[7].app[0].srcNodeId 7
config *.host[7].app[0].nextHopId 6
config *.host[7].app[0].timeToFirstPacket exponential(5s)
config *.host[7].app[0].timeToNextPacket exponential(10s)
config *.host[8].app[0].destNodeIds "\"1 9\""
config *.host[8].app[0].srcNodeId 8
config *.host[8].app[0].nextHopId 1
config *.host[8].app[0].timeToFirstPacket exponential(5s)
config *.host[8].app[0].timeToNextPacket exponential(10s)
config *.host[9].app[0].destNodeIds "\"2 8\""
config *.host[9].app[0].srcNodeId 9
config *.host[9].app[0].nextHopId 8
config *.host[9].app[0].timeToFirstPacket exponential(5s)
config *.host[9].app[0].timeToNextPacket exponential(10s)
config *.host[10].app[0].destNodeIds "\"16 17\""
config *.host[10].app[0].srcNodeId 10
config *.host[10].app[0].nextHopId 16
config *.host[10].app[0].timeToFirstPacket exponential(5s)
config *.host[10].app[0].timeToNextPacket exponential(10s)
config *.host[11].app[0].destNodeIds "\"20\""
config *.host[11].app[0].srcNodeId 11
config *.host[11].app[0].nextHopId 20
config *.host[11].app[0].timeToFirstPacket exponential(5s)
config *.host[11].app[0].timeToNextPacket exponential(10s)
config *.host[12].app[0].destNodeIds "\"21 25\""
config *.host[12].app[0].srcNodeId 12
config *.host[12].app[0].nextHopId -1
config *.host[12].app[0].timeToFirstPacket exponential(5s)
config *.host[12].app[0].timeToNextPacket exponential(10s)
config *.host[13].app[0].destNodeIds "\"14 21\""
config *.host[13].app[0].srcNodeId 13
config *.host[13].app[0].nextHopId 21
config *.host[13].app[0].timeToFirstPacket exponential(5s)
config *.host[13].app[0].timeToNextPacket exponential(10s)
config *.host[14].app[0].destNodeIds "\"15 13\""
config *.host[14].app[0].srcNodeId 14
config *.host[14].app[0].nextHopId 13
config *.host[14].app[0].timeToFirstPacket exponential(5s)
config *.host[14].app[0].timeToNextPacket exponential(10s)
config *.host[15].app[0].destNodeIds "\"16 14\""
config *.host[15].app[0].srcNodeId 15
config *.host[15].app[0].nextHopId 14
config *.host[15].app[0].timeToFirstPacket exponential(5s)
config *.host[15].app[0].timeToNextPacket exponential(10s)
config *.host[16].app[0].destNodeIds "\"15 10\""
config *.host[16].app[0].srcNodeId 16
config *.host[16].app[0].nextHopId 15
config *.host[16].app[0].timeToFirstPacket exponential(5s)
config *.host[16].app[0].timeToNextPacket exponential(10s)
config *.host[17].app[0].destNodeIds "\"10 18\""
config *.host[17].app[0].srcNodeId 17
config *.host[17].app[0].nextHopId 10
config *.host[17].app[0].timeToFirstPacket exponential(5s)
config *.host[17].app[0].timeToNextPacket exponential(10s)
config *.host[18].app[0].destNodeIds "\"19 17\""
config *.host[18].app[0].srcNodeId 18
config *.host[18].app[0].nextHopId 17
config *.host[18].app[0].timeToFirstPacket exponential(5s)
config *.host[18].app[0].timeToNextPacket exponential(10s)
config *.host[19].app[0].destNodeIds "\"18 20\""
config *.host[19].app[0].srcNodeId 19
config *.host[19].app[0].nextHopId 18
config *.host[19].app[0].timeToFirstPacket exponential(5s)
config *.host[19].app[0].timeToNextPacket exponential(10s)
config *.host[20].app[0].destNodeIds "\"19 11\""
config *.host[20].app[0].srcNodeId 20
config *.host[20].app[0].nextHopId 19
config *.host[20].app[0].timeToFirstPacket exponential(5s)
config *.host[20].app[0].timeToNextPacket exponential(10s)
config *.host[21].app[0].destNodeIds "\"13 12\""
config *.host[21].app[0].srcNodeId 21
config *.host[21].app[0].nextHopId 12
config *.host[21].app[0].timeToFirstPacket exponential(5s)
config *.host[21].app[0].timeToNextPacket exponential(10s)
config *.host[22].app[0].destNodeIds "\"25 23\""
config *.host[22].app[0].srcNodeId 22
config *.host[22].app[0].nextHopId 25
config *.host[22].app[0].timeToFirstPacket exponential(5s)
config *.host[22].app[0].timeToNextPacket exponential(10s)
config *.host[23].app[0].destNodeIds "\"22 26\""
config *.host[23].app[0].srcNodeId 23
config *.host[23].app[0].nextHopId 22
config *.host[23].app[0].timeToFirstPacket exponential(5s)
config *.host[23].app[0].timeToNextPacket exponential(10s)
config *.host[24].app[0].destNodeIds "\"26\""
config *.host[24].app[0].srcNodeId 24
config *.host[24].app[0].nextHopId 26
config *.host[24].app[0].timeToFirstPacket exponential(5s)
config *.host[24].app[0].timeToNextPacket exponential(10s)
config *.host[25].app[0].destNodeIds "\"12 22\""
config *.host[25].app[0].srcNodeId 25
config *.host[25].app[0].nextHopId 12
config *.host[25].app[0].timeToFirstPacket exponential(5s)
config *.host[25].app[0].timeToNextPacket exponential(10s)
config *.host[26].app[0].destNodeIds "\"23 24\""
config *.host[26].app[0].srcNodeId 26
config *.host[26].app[0].nextHopId 23
config *.host[26].app[0].timeToFirstPacket exponential(5s)
config *.host[26].app[0].timeToNextPacket exponential(10s)
config *.host[*].mobility.typename StationaryMobility
config *.host[*].mobility.initFromDisplayString false
config *.host[*].gatewayX 250
config *.host[*].gatewayY 150
config *.host[*].maxGatewayDistance 2000
config *.host[*].app[0].numberOfPacketsToSend 0
config *.radioMedium.typename LoRaMedium
config *.radioMedium.pathLoss.typename Multimodel
config *.radioMedium.maxTransmissionDuration 100s
config *.radioMedium.mediumLimitCache.maxTransmissionDuration 100s
config *.radioMedium.backgroundNoise.typename IsotropicScalarBackgroundNoise
config *.radioMedium.backgroundNoise.power -117dBm
config *.radioMedium.pathLoss.width_tunnel 4
config *.radioMedium.pathLoss.height_tunnel 4
config *.radioMedium.pathLoss.gain_tx 1.5849
config *.radioMedium.pathLoss.gain_tx_tr 0.2
config *.radioMedium.pathLoss.power_tx 2.5
config *.radioMedium.pathLoss.p_tx_radio 0.025119W
config *.radioMedium.pathLoss.frequency 915e6
config *.host[*].LoRaNic.queue.typename DropTailQueue
config *.host[*].LoRaNic.queue.packetCapacity -1
config *.host[*].LoRaNic.radio.receiver.typename LoRaReceiver
config *.host[*].LoRaNic.radio.receiver.energyDetection -117dBm
config *.host[*].LoRaNic.radio.receiver.sensitivity -117dBm
config *.gateway.numUdpApps 1
config *.gateway.packetForwarder.destAddresses "\"networkServer\""
config *.gateway.packetForwarder.localPort 2000
config *.gateway.packetForwarder.destPort 1000
config *.gateway.packetForwarder.indexNumber 0
config *.networkServer.numApps 1
config *.networkServer.app[0].typename NetworkServerApp
config *.networkServer.app[0].destAddresses "\"gateway\""
config *.networkServer.app[0].destPort 2000
config *.networkServer.app[0].localPort 1000
config *.networkServer.app[0].adrMethod "\"avg\""
config **.energySourceModule "\"\""
config **.energyStorageModule "\"\""
config **.energyConsumerModule "\"\""
config *.visualizer.mediumVisualizer.displaySignals true
config **.host[*].displayString "\"i=misc/sensor\""
config **.gateway.displayString "\"i=misc/antennatower\""
config **.networkServer.displayString "\"i=misc/server\""
config *.visualizer.physicalLinkVisualizer.displayLinks true
config *.visualizer.physicalLinkVisualizer.packetFilter "\"DataFrame*\""
config *.visualizer.dataLinkVisualizer.displayLinks true
config *.radioMedium.*.result-recording-modes default,+vector
config *.host[*].LoRaNic.radio.*.result-recording-modes default,+vector
config **.snir:vector.result-recording-modes +vector

vector 0 Wireless3.networkServer.eth[0].queue queueLength:vector ETV
attr autoWarmupFilter false
attr interpolationmode sample-hold
attr recordingmode vector
attr source "warmup(atomic(constant0(packetPushEnded) + count(packetPushStarted) - count(packetPulled) - count(packetRemoved) - count(packetDropped)))"
attr title "queue length"
attr unit pk
vector 1 Wireless3.networkServer.eth[0].queue queueBitLength:vector ETV
attr autoWarmupFilter false
attr interpolationmode sample-hold
attr recordingmode vector
attr source "warmup(atomic(constant0(packetPushEnded) + sum(packetLength(packetPushStarted)) - sum(packetLength(packetPulled)) - sum(packetLength(packetRemoved)) - sum(packetLength(packetDropped))))"
attr title "queue bit length"
attr unit b
vector 2 Wireless3.networkServer.udp passedUpPk:vector(count) ETV
attr interpolationmode none
attr recordingmode vector(count)
attr source packetSentToUpper
attr title "packets passed up, count"
vector 3 Wireless3.networkServer.udp droppedPkWrongPort:vector(count) ETV
attr interpolationmode none
attr recordingmode vector(count)
attr source packetDropReasonIsNoPortFound(packetDropped)
attr title "packets dropped (wrong port), count"
vector 4 Wireless3.networkServer.udp droppedPkBadChecksum:vector(count) ETV
attr interpolationmode none
attr recordingmode vector(count)
attr source packetDropReasonIsIncorrectlyReceived(packetDropped)
attr title "packets dropped (checksum error), count"
vector 5 Wireless3.gateway.eth[0].queue queueLength:vector ETV
attr autoWarmupFilter false
attr interpolationmode sample-hold
attr recordingmode vector
attr source "warmup(atomic(constant0(packetPushEnded) + count(packetPushStarted) - count(packetPulled) - count(packetRemoved) - count(packetDropped)))"
attr title "queue length"
attr unit pk
vector 6 Wireless3.gateway.eth[0].queue queueBitLength:vector ETV
attr autoWarmupFilter false
attr interpolationmode sample-hold
attr recordingmode vector
attr source "warmup(atomic(constant0(packetPushEnded) + sum(packetLength(packetPushStarted)) - sum(packetLength(packetPulled)) - sum(packetLength(packetRemoved)) - sum(packetLength(packetDropped))))"
attr title "queue bit length"
attr unit b
vector 7 Wireless3.gateway.udp passedUpPk:vector(count) ETV
attr interpolationmode none
attr recordingmode vector(count)
attr source packetSentToUpper
attr title "packets passed up, count"
vector 8 Wireless3.gateway.udp droppedPkWrongPort:vector(count) ETV
attr interpolationmode none
attr recordingmode vector(count)
attr source packetDropReasonIsNoPortFound(packetDropped)
attr title "packets dropped (wrong port), count"
vector 9 Wireless3.gateway.udp droppedPkBadChecksum:vector(count) ETV
attr interpolationmode none
attr recordingmode vector(count)
attr source packetDropReasonIsIncorrectlyReceived(packetDropped)
attr title "packets dropped (checksum error), count"
vector 10 Wireless3.host[0].LoRaNic.queue queueLength:vector ETV
attr autoWarmupFilter false
attr interpolationmode sample-hold
attr recordingmode vector
attr source "warmup(atomic(constant0(packetPushEnded) + count(packetPushStarted) - count(packetPulled) - count(packetRemoved) - count(packetDropped)))"
attr title "queue length"
attr unit pk
vector 11 Wireless3.host[0].LoRaNic.queue queueBitLength:vector ETV
attr autoWarmupFilter false
attr interpolationmode sample-hold
attr recordingmode vector
attr source "warmup(atomic(constant0(packetPushEnded) + sum(packetLength(packetPushStarted)) - sum(packetLength(packetPulled)) - sum(packetLength(packetRemoved)) - sum(packetLength(packetDropped))))"
attr title "queue bit length"
attr unit b
vector 12 Wireless3.host[1].LoRaNic.queue queueLength:vector ETV
attr autoWarmupFilter false
attr interpolationmode sample-hold
attr recordingmode vector
attr source "warmup(atomic(constant0(packetPushEnded) + count(packetPushStarted) - count(packetPulled) - count(packetRemoved) - count(packetDropped)))"
attr title "queue length"
attr unit pk
vector 13 Wireless3.host[1].LoRaNic.queue queueBitLength:vector ETV
attr autoWarmupFilter false
attr interpolationmode sample-hold
attr recordingmode vector
attr source "warmup(atomic(constant0(packetPushEnded) + sum(packetLength(packetPushStarted)) - sum(packetLength(packetPulled)) - sum(packetLength(packetRemoved)) - sum(packetLength(packetDropped))))"
attr title "queue bit length"
attr unit b
vector 14 Wireless3.host[2].LoRaNic.queue queueLength:vector ETV
attr autoWarmupFilter false
attr interpolationmode sample-hold
attr recordingmode vector
attr source "warmup(atomic(constant0(packetPushEnded) + count(packetPushStarted) - count(packetPulled) - count(packetRemoved) - count(packetDropped)))"
attr title "queue length"
attr unit pk
vector 15 Wireless3.host[2].LoRaNic.queue queueBitLength:vector ETV
attr autoWarmupFilter false
attr interpolationmode sample-hold
attr recordingmode vector
attr source "warmup(atomic(constant0(packetPushEnded) + sum(packetLength(packetPushStarted)) - sum(packetLength(packetPulled)) - sum(packetLength(packetRemoved)) - sum(packetLength(packetDropped))))"
attr title "queue bit length"
attr unit b
vector 16 Wireless3.host[3].LoRaNic.queue queueLength:vector ETV
attr autoWarmupFilter false
attr interpolationmode sample-hold
attr recordingmode vector
attr source "warmup(atomic(constant0(packetPushEnded) + count(packetPushStarted) - count(packetPulled) - count(packetRemoved) - count(packetDropped)))"
attr title "queue length"
attr unit pk
vector 17 Wireless3.host[3].LoRaNic.queue queueBitLength:vector ETV
attr autoWarmupFilter false
attr interpolationmode sample-hold
attr recordingmode vector
attr source "warmup(atomic(constant0(packetPushEnded) + sum(packetLength(packetPushStarted)) - sum(packetLength(packetPulled)) - sum(packetLength(packetRemoved)) - sum(packetLength(packetDropped))))"
attr title "queue bit length"
attr unit b
vector 18 Wireless3.host[4].LoRaNic.queue queueLength:vector ETV
attr autoWarmupFilter false
attr interpolationmode sample-hold
attr recordingmode vector
attr source "warmup(atomic(constant0(packetPushEnded) + count(packetPushStarted) - count(packetPulled) - count(packetRemoved) - count(packetDropped)))"
attr title "queue length"
attr unit pk
vector 19 Wireless3.host[4].LoRaNic.queue queueBitLength:vector ETV
attr autoWarmupFilter false
attr interpolationmode sample-hold
attr recordingmode vector
attr source "warmup(atomic(constant0(packetPushEnded) + sum(packetLength(packetPushStarted)) - sum(packetLength(packetPulled)) - sum(packetLength(packetRemoved)) - sum(packetLength(packetDropped))))"
attr title "queue bit length"
attr unit b
vector 20 Wireless3.host[5].LoRaNic.queue queueLength:vector ETV
attr autoWarmupFilter false
attr interpolationmode sample-hold
attr recordingmode vector
attr source "warmup(atomic(constant0(packetPushEnded) + count(packetPushStarted) - count(packetPulled) - count(packetRemoved) - count(packetDropped)))"
attr title "queue length"
attr unit pk
vector 21 Wireless3.host[5].LoRaNic.queue queueBitLength:vector ETV
attr autoWarmupFilter false
attr interpolationmode sample-hold
attr recordingmode vector
attr source "warmup(atomic(constant0(packetPushEnded) + sum(packetLength(packetPushStarted)) - sum(packetLength(packetPulled)) - sum(packetLength(packetRemoved)) - sum(packetLength(packetDropped))))"
attr title "queue bit length"
attr unit b
vector 22 Wireless3.host[6].LoRaNic.queue queueLength:vector ETV
attr autoWarmupFilter false
attr interpolationmode sample-hold
attr recordingmode vector
attr source "warmup(atomic(constant0(packetPushEnded) + count(packetPushStarted) - count(packetPulled) - count(packetRemoved) - count(packetDropped)))"
attr title "queue length"
attr unit pk
vector 23 Wireless3.host[6].LoRaNic.queue queueBitLength:vector ETV
attr autoWarmupFilter false
attr interpolationmode sample-hold
attr recordingmode vector
attr source "warmup(atomic(constant0(packetPushEnded) + sum(packetLength(packetPushStarted)) - sum(packetLength(packetPulled)) - sum(packetLength(packetRemoved)) - sum(packetLength(packetDropped))))"
attr title "queue bit length"
attr unit b
vector 24 Wireless3.host[7].LoRaNic.queue queueLength:vector ETV
attr autoWarmupFilter false
attr interpolationmode sample-hold
attr recordingmode vector
attr source "warmup(atomic(constant0(packetPushEnded) + count(packetPushStarted) - count(packetPulled) - count(packetRemoved) - count(packetDropped)))"
attr title "queue length"
attr unit pk
vector 25 Wireless3.host[7].LoRaNic.queue queueBitLength:vector ETV
attr autoWarmupFilter false
attr interpolationmode sample-hold
attr recordingmode vector
attr source "warmup(atomic(constant0(packetPushEnded) + sum(packetLength(packetPushStarted)) - sum(packetLength(packetPulled)) - sum(packetLength(packetRemoved)) - sum(packetLength(packetDropped))))"
attr title "queue bit length"
attr unit b
vector 26 Wireless3.host[8].LoRaNic.queue queueLength:vector ETV
attr autoWarmupFilter false
attr interpolationmode sample-hold
attr recordingmode vector
attr source "warmup(atomic(constant0(packetPushEnded) + count(packetPushStarted) - count(packetPulled) - count(packetRemoved) - count(packetDropped)))"
attr title "queue length"
attr unit pk
vector 27 Wireless3.host[8].LoRaNic.queue queueBitLength:vector ETV
attr autoWarmupFilter false
attr interpolationmode sample-hold
attr recordingmode vector
attr source "warmup(atomic(constant0(packetPushEnded) + sum(packetLength(packetPushStarted)) - sum(packetLength(packetPulled)) - sum(packetLength(packetRemoved)) - sum(packetLength(packetDropped))))"
attr title "queue bit length"
attr unit b
vector 28 Wireless3.host[9].LoRaNic.queue queueLength:vector ETV
attr autoWarmupFilter false
attr interpolationmode sample-hold
attr recordingmode vector
attr source "warmup(atomic(constant0(packetPushEnded) + count(packetPushStarted) - count(packetPulled) - count(packetRemoved) - count(packetDropped)))"
attr title "queue length"
attr unit pk
vector 29 Wireless3.host[9].LoRaNic.queue queueBitLength:vector ETV
attr autoWarmupFilter false
attr interpolationmode sample-hold
attr recordingmode vector
attr source "warmup(atomic(constant0(packetPushEnded) + sum(packetLength(packetPushStarted)) - sum(packetLength(packetPulled)) - sum(packetLength(packetRemoved)) - sum(packetLength(packetDropped))))"
attr title "queue bit length"
attr unit b
vector 30 Wireless3.host[10].LoRaNic.queue queueLength:vector ETV
attr autoWarmupFilter false
attr interpolationmode sample-hold
attr recordingmode vector
attr source "warmup(atomic(constant0(packetPushEnded) + count(packetPushStarted) - count(packetPulled) - count(packetRemoved) - count(packetDropped)))"
attr title "queue length"
attr unit pk
vector 31 Wireless3.host[10].LoRaNic.queue queueBitLength:vector ETV
attr autoWarmupFilter false
attr interpolationmode sample-hold
attr recordingmode vector
attr source "warmup(atomic(constant0(packetPushEnded) + sum(packetLength(packetPushStarted)) - sum(packetLength(packetPulled)) - sum(packetLength(packetRemoved)) - sum(packetLength(packetDropped))))"
attr title "queue bit length"
attr unit b
vector 32 Wireless3.host[11].LoRaNic.queue queueLength:vector ETV
attr autoWarmupFilter false
attr interpolationmode sample-hold
attr recordingmode vector
attr source "warmup(atomic(constant0(packetPushEnded) + count(packetPushStarted) - count(packetPulled) - count(packetRemoved) - count(packetDropped)))"
attr title "queue length"
attr unit pk
vector 33 Wireless3.host[11].LoRaNic.queue queueBitLength:vector ETV
attr autoWarmupFilter false
attr interpolationmode sample-hold
attr recordingmode vector
attr source "warmup(atomic(constant0(packetPushEnded) + sum(packetLength(packetPushStarted)) - sum(packetLength(packetPulled)) - sum(packetLength(packetRemoved)) - sum(packetLength(packetDropped))))"
attr title "queue bit length"
attr unit b
vector 34 Wireless3.host[12].LoRaNic.queue queueLength:vector ETV
attr autoWarmupFilter false
attr interpolationmode sample-hold
attr recordingmode vector
attr source "warmup(atomic(constant0(packetPushEnded) + count(packetPushStarted) - count(packetPulled) - count(packetRemoved) - count(packetDropped)))"
attr title "queue length"
attr unit pk
vector 35 Wireless3.host[12].LoRaNic.queue queueBitLength:vector ETV
attr autoWarmupFilter false
attr interpolationmode sample-hold
attr recordingmode vector
attr source "warmup(atomic(constant0(packetPushEnded) + sum(packetLength(packetPushStarted)) - sum(packetLength(packetPulled)) - sum(packetLength(packetRemoved)) - sum(packetLength(packetDropped))))"
attr title "queue bit length"
attr unit b
vector 36 Wireless3.host[13].LoRaNic.queue queueLength:vector ETV
attr autoWarmupFilter false
attr interpolationmode sample-hold
attr recordingmode vector
attr source "warmup(atomic(constant0(packetPushEnded) + count(packetPushStarted) - count(packetPulled) - count(packetRemoved) - count(packetDropped)))"
attr title "queue length"
attr unit pk
vector 37 Wireless3.host[13].LoRaNic.queue queueBitLength:vector ETV
attr autoWarmupFilter false
attr interpolationmode sample-hold
attr recordingmode vector
attr source "warmup(atomic(constant0(packetPushEnded) + sum(packetLength(packetPushStarted)) - sum(packetLength(packetPulled)) - sum(packetLength(packetRemoved)) - sum(packetLength(packetDropped))))"
attr title "queue bit length"
attr unit b
vector 38 Wireless3.host[14].LoRaNic.queue queueLength:vector ETV
attr autoWarmupFilter false
attr interpolationmode sample-hold
attr recordingmode vector
attr source "warmup(atomic(constant0(packetPushEnded) + count(packetPushStarted) - count(packetPulled) - count(packetRemoved) - count(packetDropped)))"
attr title "queue length"
attr unit pk
vector 39 Wireless3.host[14].LoRaNic.queue queueBitLength:vector ETV
attr autoWarmupFilter false
attr interpolationmode sample-hold
attr recordingmode vector
attr source "warmup(atomic(constant0(packetPushEnded) + sum(packetLength(packetPushStarted)) - sum(packetLength(packetPulled)) - sum(packetLength(packetRemoved)) - sum(packetLength(packetDropped))))"
attr title "queue bit length"
attr unit b
vector 40 Wireless3.host[15].LoRaNic.queue queueLength:vector ETV
attr autoWarmupFilter false
attr interpolationmode sample-hold
attr recordingmode vector
attr source "warmup(atomic(constant0(packetPushEnded) + count(packetPushStarted) - count(packetPulled) - count(packetRemoved) - count(packetDropped)))"
attr title "queue length"
attr unit pk
vector 41 Wireless3.host[15].LoRaNic.queue queueBitLength:vector ETV
attr autoWarmupFilter false
attr interpolationmode sample-hold
attr recordingmode vector
attr source "warmup(atomic(constant0(packetPushEnded) + sum(packetLength(packetPushStarted)) - sum(packetLength(packetPulled)) - sum(packetLength(packetRemoved)) - sum(packetLength(packetDropped))))"
attr title "queue bit length"
attr unit b
vector 42 Wireless3.host[16].LoRaNic.queue queueLength:vector ETV
attr autoWarmupFilter false
attr interpolationmode sample-hold
attr recordingmode vector
attr source "warmup(atomic(constant0(packetPushEnded) + count(packetPushStarted) - count(packetPulled) - count(packetRemoved) - count(packetDropped)))"
attr title "queue length"
attr unit pk
vector 43 Wireless3.host[16].LoRaNic.queue queueBitLength:vector ETV
attr autoWarmupFilter false
attr interpolationmode sample-hold
attr recordingmode vector
attr source "warmup(atomic(constant0(packetPushEnded) + sum(packetLength(packetPushStarted)) - sum(packetLength(packetPulled)) - sum(packetLength(packetRemoved)) - sum(packetLength(packetDropped))))"
attr title "queue bit length"
attr unit b
vector 44 Wireless3.host[17].LoRaNic.queue queueLength:vector ETV
attr autoWarmupFilter false
attr interpolationmode sample-hold
attr recordingmode vector
attr source "warmup(atomic(constant0(packetPushEnded) + count(packetPushStarted) - count(packetPulled) - count(packetRemoved) - count(packetDropped)))"
attr title "queue length"
attr unit pk
vector 45 Wireless3.host[17].LoRaNic.queue queueBitLength:vector ETV
attr autoWarmupFilter false
attr interpolationmode sample-hold
attr recordingmode vector
attr source "warmup(atomic(constant0(packetPushEnded) + sum(packetLength(packetPushStarted)) - sum(packetLength(packetPulled)) - sum(packetLength(packetRemoved)) - sum(packetLength(packetDropped))))"
attr title "queue bit length"
attr unit b
vector 46 Wireless3.host[18].LoRaNic.queue queueLength:vector ETV
attr autoWarmupFilter false
attr interpolationmode sample-hold
attr recordingmode vector
attr source "warmup(atomic(constant0(packetPushEnded) + count(packetPushStarted) - count(packetPulled) - count(packetRemoved) - count(packetDropped)))"
attr title "queue length"
attr unit pk
vector 47 Wireless3.host[18].LoRaNic.queue queueBitLength:vector ETV
attr autoWarmupFilter false
attr interpolationmode sample-hold
attr recordingmode vector
attr source "warmup(atomic(constant0(packetPushEnded) + sum(packetLength(packetPushStarted)) - sum(packetLength(packetPulled)) - sum(packetLength(packetRemoved)) - sum(packetLength(packetDropped))))"
attr title "queue bit length"
attr unit b
vector 48 Wireless3.host[19].LoRaNic.queue queueLength:vector ETV
attr autoWarmupFilter false
attr interpolationmode sample-hold
attr recordingmode vector
attr source "warmup(atomic(constant0(packetPushEnded) + count(packetPushStarted) - count(packetPulled) - count(packetRemoved) - count(packetDropped)))"
attr title "queue length"
attr unit pk
vector 49 Wireless3.host[19].LoRaNic.queue queueBitLength:vector ETV
attr autoWarmupFilter false
attr interpolationmode sample-hold
attr recordingmode vector
attr source "warmup(atomic(constant0(packetPushEnded) + sum(packetLength(packetPushStarted)) - sum(packetLength(packetPulled)) - sum(packetLength(packetRemoved)) - sum(packetLength(packetDropped))))"
attr title "queue bit length"
attr unit b
vector 50 Wireless3.host[20].LoRaNic.queue queueLength:vector ETV
attr autoWarmupFilter false
attr interpolationmode sample-hold
attr recordingmode vector
attr source "warmup(atomic(constant0(packetPushEnded) + count(packetPushStarted) - count(packetPulled) - count(packetRemoved) - count(packetDropped)))"
attr title "queue length"
attr unit pk
vector 51 Wireless3.host[20].LoRaNic.queue queueBitLength:vector ETV
attr autoWarmupFilter false
attr interpolationmode sample-hold
attr recordingmode vector
attr source "warmup(atomic(constant0(packetPushEnded) + sum(packetLength(packetPushStarted)) - sum(packetLength(packetPulled)) - sum(packetLength(packetRemoved)) - sum(packetLength(packetDropped))))"
attr title "queue bit length"
attr unit b
vector 52 Wireless3.host[21].LoRaNic.queue queueLength:vector ETV
attr autoWarmupFilter false
attr interpolationmode sample-hold
attr recordingmode vector
attr source "warmup(atomic(constant0(packetPushEnded) + count(packetPushStarted) - count(packetPulled) - count(packetRemoved) - count(packetDropped)))"
attr title "queue length"
attr unit pk
vector 53 Wireless3.host[21].LoRaNic.queue queueBitLength:vector ETV
attr autoWarmupFilter false
attr interpolationmode sample-hold
attr recordingmode vector
attr source "warmup(atomic(constant0(packetPushEnded) + sum(packetLength(packetPushStarted)) - sum(packetLength(packetPulled)) - sum(packetLength(packetRemoved)) - sum(packetLength(packetDropped))))"
attr title "queue bit length"
attr unit b
vector 54 Wireless3.host[22].LoRaNic.queue queueLength:vector ETV
attr autoWarmupFilter false
attr interpolationmode sample-hold
attr recordingmode vector
attr source "warmup(atomic(constant0(packetPushEnded) + count(packetPushStarted) - count(packetPulled) - count(packetRemoved) - count(packetDropped)))"
attr title "queue length"
attr unit pk
vector 55 Wireless3.host[22].LoRaNic.queue queueBitLength:vector ETV
attr autoWarmupFilter false
attr interpolationmode sample-hold
attr recordingmode vector
attr source "warmup(atomic(constant0(packetPushEnded) + sum(packetLength(packetPushStarted)) - sum(packetLength(packetPulled)) - sum(packetLength(packetRemoved)) - sum(packetLength(packetDropped))))"
attr title "queue bit length"
attr unit b
vector 56 Wireless3.host[23].LoRaNic.queue queueLength:vector ETV
attr autoWarmupFilter false
attr interpolationmode sample-hold
attr recordingmode vector
attr source "warmup(atomic(constant0(packetPushEnded) + count(packetPushStarted) - count(packetPulled) - count(packetRemoved) - count(packetDropped)))"
attr title "queue length"
attr unit pk
vector 57 Wireless3.host[23].LoRaNic.queue queueBitLength:vector ETV
attr autoWarmupFilter false
attr interpolationmode sample-hold
attr recordingmode vector
attr source "warmup(atomic(constant0(packetPushEnded) + sum(packetLength(packetPushStarted)) - sum(packetLength(packetPulled)) - sum(packetLength(packetRemoved)) - sum(packetLength(packetDropped))))"
attr title "queue bit length"
attr unit b
vector 58 Wireless3.host[24].LoRaNic.queue queueLength:vector ETV
attr autoWarmupFilter false
attr interpolationmode sample-hold
attr recordingmode vector
attr source "warmup(atomic(constant0(packetPushEnded) + count(packetPushStarted) - count(packetPulled) - count(packetRemoved) - count(packetDropped)))"
attr title "queue length"
attr unit pk
vector 59 Wireless3.host[24].LoRaNic.queue queueBitLength:vector ETV
attr autoWarmupFilter false
attr interpolationmode sample-hold
attr recordingmode vector
attr source "warmup(atomic(constant0(packetPushEnded) + sum(packetLength(packetPushStarted)) - sum(packetLength(packetPulled)) - sum(packetLength(packetRemoved)) - sum(packetLength(packetDropped))))"
attr title "queue bit length"
attr unit b
vector 60 Wireless3.host[25].LoRaNic.queue queueLength:vector ETV
attr autoWarmupFilter false
attr interpolationmode sample-hold
attr recordingmode vector
attr source "warmup(atomic(constant0(packetPushEnded) + count(packetPushStarted) - count(packetPulled) - count(packetRemoved) - count(packetDropped)))"
attr title "queue length"
attr unit pk
vector 61 Wireless3.host[25].LoRaNic.queue queueBitLength:vector ETV
attr autoWarmupFilter false
attr interpolationmode sample-hold
attr recordingmode vector
attr source "warmup(atomic(constant0(packetPushEnded) + sum(packetLength(packetPushStarted)) - sum(packetLength(packetPulled)) - sum(packetLength(packetRemoved)) - sum(packetLength(packetDropped))))"
attr title "queue bit length"
attr unit b
vector 62 Wireless3.host[26].LoRaNic.queue queueLength:vector ETV
attr autoWarmupFilter false
attr interpolationmode sample-hold
attr recordingmode vector
attr source "warmup(atomic(constant0(packetPushEnded) + count(packetPushStarted) - count(packetPulled) - count(packetRemoved) - count(packetDropped)))"
attr title "queue length"
attr unit pk
vector 63 Wireless3.host[26].LoRaNic.queue queueBitLength:vector ETV
attr autoWarmupFilter false
attr interpolationmode sample-hold
attr recordingmode vector
attr source "warmup(atomic(constant0(packetPushEnded) + sum(packetLength(packetPushStarted)) - sum(packetLength(packetPulled)) - sum(packetLength(packetRemoved)) - sum(packetLength(packetDropped))))"
attr title "queue bit length"
attr unit b
vector 64 Wireless3.gateway.LoRaGWNic.radio radioMode:vector ETV
attr interpolationmode sample-hold
attr recordingmode vector
attr source radioModeChanged
attr title "Radio mode"
vector 65 Wireless3.host[0].LoRaNic.radio radioMode:vector ETV
attr interpolationmode sample-hold
attr recordingmode vector
attr source radioModeChanged
attr title "Radio mode"
vector 66 Wireless3.host[1].LoRaNic.radio radioMode:vector ETV
attr interpolationmode sample-hold
attr recordingmode vector
attr source radioModeChanged
attr title "Radio mode"
vector 67 Wireless3.host[2].LoRaNic.radio radioMode:vector ETV
attr interpolationmode sample-hold
attr recordingmode vector
attr source radioModeChanged
attr title "Radio mode"
vector 68 Wireless3.host[3].LoRaNic.radio radioMode:vector ETV
attr interpolationmode sample-hold
attr recordingmode vector
attr source radioModeChanged
attr title "Radio mode"
vector 69 Wireless3.host[4].LoRaNic.radio radioMode:vector ETV
attr interpolationmode sample-hold
attr recordingmode vector
attr source radioModeChanged
attr title "Radio mode"
vector 70 Wireless3.host[5].LoRaNic.radio radioMode:vector ETV
attr interpolationmode sample-hold
attr recordingmode vector
attr source radioModeChanged
attr title "Radio mode"
vector 71 Wireless3.host[6].LoRaNic.radio radioMode:vector ETV
attr interpolationmode sample-hold
attr recordingmode vector
attr source radioModeChanged
attr title "Radio mode"
vector 72 Wireless3.host[7].LoRaNic.radio radioMode:vector ETV
attr interpolationmode sample-hold
attr recordingmode vector
attr source radioModeChanged
attr title "Radio mode"
vector 73 Wireless3.host[8].LoRaNic.radio radioMode:vector ETV
attr interpolationmode sample-hold
attr recordingmode vector
attr source radioModeChanged
attr title "Radio mode"
vector 74 Wireless3.host[9].LoRaNic.radio radioMode:vector ETV
attr interpolationmode sample-hold
attr recordingmode vector
attr source radioModeChanged
attr title "Radio mode"
vector 75 Wireless3.host[10].LoRaNic.radio radioMode:vector ETV
attr interpolationmode sample-hold
attr recordingmode vector
attr source radioModeChanged
attr title "Radio mode"
vector 76 Wireless3.host[11].LoRaNic.radio radioMode:vector ETV
attr interpolationmode sample-hold
attr recordingmode vector
attr source radioModeChanged
attr title "Radio mode"
vector 77 Wireless3.host[12].LoRaNic.radio radioMode:vector ETV
attr interpolationmode sample-hold
attr recordingmode vector
attr source radioModeChanged
attr title "Radio mode"
vector 78 Wireless3.host[13].LoRaNic.radio radioMode:vector ETV
attr interpolationmode sample-hold
attr recordingmode vector
attr source radioModeChanged
attr title "Radio mode"
vector 79 Wireless3.host[14].LoRaNic.radio radioMode:vector ETV
attr interpolationmode sample-hold
attr recordingmode vector
attr source radioModeChanged
attr title "Radio mode"
vector 80 Wireless3.host[15].LoRaNic.radio radioMode:vector ETV
attr interpolationmode sample-hold
attr recordingmode vector
attr source radioModeChanged
attr title "Radio mode"
vector 81 Wireless3.host[16].LoRaNic.radio radioMode:vector ETV
attr interpolationmode sample-hold
attr recordingmode vector
attr source radioModeChanged
attr title "Radio mode"
vector 82 Wireless3.host[17].LoRaNic.radio radioMode:vector ETV
attr interpolationmode sample-hold
attr recordingmode vector
attr source radioModeChanged
attr title "Radio mode"
vector 83 Wireless3.host[18].LoRaNic.radio radioMode:vector ETV
attr interpolationmode sample-hold
attr recordingmode vector
attr source radioModeChanged
attr title "Radio mode"
vector 84 Wireless3.host[19].LoRaNic.radio radioMode:vector ETV
attr interpolationmode sample-hold
attr recordingmode vector
attr source radioModeChanged
attr title "Radio mode"
vector 85 Wireless3.host[20].LoRaNic.radio radioMode:vector ETV
attr interpolationmode sample-hold
attr recordingmode vector
attr source radioModeChanged
attr title "Radio mode"
vector 86 Wireless3.host[21].LoRaNic.radio radioMode:vector ETV
attr interpolationmode sample-hold
attr recordingmode vector
attr source radioModeChanged
attr title "Radio mode"
vector 87 Wireless3.host[22].LoRaNic.radio radioMode:vector ETV
attr interpolationmode sample-hold
attr recordingmode vector
attr source radioModeChanged
attr title "Radio mode"
vector 88 Wireless3.host[23].LoRaNic.radio radioMode:vector ETV
attr interpolationmode sample-hold
attr recordingmode vector
attr source radioModeChanged
attr title "Radio mode"
vector 89 Wireless3.host[24].LoRaNic.radio radioMode:vector ETV
attr interpolationmode sample-hold
attr recordingmode vector
attr source radioModeChanged
attr title "Radio mode"
vector 90 Wireless3.host[25].LoRaNic.radio radioMode:vector ETV
attr interpolationmode sample-hold
attr recordingmode vector
attr source radioModeChanged
attr title "Radio mode"
vector 91 Wireless3.host[26].LoRaNic.radio radioMode:vector ETV
attr interpolationmode sample-hold
attr recordingmode vector
attr source radioModeChanged
attr title "Radio mode"
vector 92 Wireless3.gateway.LoRaGWNic.radio receptionState:vector ETV
attr interpolationmode sample-hold
attr recordingmode vector
attr source receptionStateChanged
attr title "Radio reception state"
vector 93 Wireless3.gateway.LoRaGWNic.radio transmissionState:vector ETV
attr interpolationmode sample-hold
attr recordingmode vector
attr source transmissionStateChanged
attr title "Radio transmission state"
vector 94 Wireless3.host[4].app[0] "SF Vector" ETV
vector 95 Wireless3.host[4].app[0] "TP Vector" ETV
vector 96 Wireless3.host[4].LoRaNic.queue incomingPacketLengths:vector ETV
attr interpolationmode none
attr recordingmode vector
attr source packetLength(packetPushStarted)
attr title "incoming packet lengths"
attr unit b
vector 97 Wireless3.host[4].LoRaNic.queue queueingTime:vector ETV
attr interpolationmode none
attr recordingmode vector
attr source queueingTime(packetPulled)
attr title "queueing times"
attr unit s
vector 98 Wireless3.host[4].LoRaNic.queue outgoingPacketLengths:vector ETV
attr interpolationmode none
attr recordingmode vector
attr source packetLength(packetPulled)
attr title "outgoing packet lengths"
attr unit b
vector 99 Wireless3.host[4].LoRaNic.radio transmissionState:vector ETV
attr interpolationmode sample-hold
attr recordingmode vector
attr source transmissionStateChanged
attr title "Radio transmission state"
vector 100 Wireless3.host[9].app[0] "SF Vector" ETV
vector 101 Wireless3.host[9].app[0] "TP Vector" ETV
vector 102 Wireless3.host[9].LoRaNic.queue incomingPacketLengths:vector ETV
attr interpolationmode none
attr recordingmode vector
attr source packetLength(packetPushStarted)
attr title "incoming packet lengths"
attr unit b
vector 103 Wireless3.host[9].LoRaNic.queue queueingTime:vector ETV
attr interpolationmode none
attr recordingmode vector
attr source queueingTime(packetPulled)
attr title "queueing times"
attr unit s
vector 104 Wireless3.host[9].LoRaNic.queue outgoingPacketLengths:vector ETV
attr interpolationmode none
attr recordingmode vector
attr source packetLength(packetPulled)
attr title "outgoing packet lengths"
attr unit b
vector 105 Wireless3.host[9].LoRaNic.radio transmissionState:vector ETV
attr interpolationmode sample-hold
attr recordingmode vector
attr source transmissionStateChanged
attr title "Radio transmission state"
vector 106 Wireless3.host[24].app[0] "SF Vector" ETV
vector 107 Wireless3.host[24].app[0] "TP Vector" ETV
vector 108 Wireless3.host[24].LoRaNic.queue incomingPacketLengths:vector ETV
attr interpolationmode none
attr recordingmode vector
attr source packetLength(packetPushStarted)
attr title "incoming packet lengths"
attr unit b
vector 109 Wireless3.host[24].LoRaNic.queue queueingTime:vector ETV
attr interpolationmode none
attr recordingmode vector
attr source queueingTime(packetPulled)
attr title "queueing times"
attr unit s
vector 110 Wireless3.host[24].LoRaNic.queue outgoingPacketLengths:vector ETV
attr interpolationmode none
attr recordingmode vector
attr source packetLength(packetPulled)
attr title "outgoing packet lengths"
attr unit b
vector 111 Wireless3.host[24].LoRaNic.radio transmissionState:vector ETV
attr interpolationmode sample-hold
attr recordingmode vector
attr source transmissionStateChanged
attr title "Radio transmission state"
vector 112 Wireless3.host[25].app[0] "SF Vector" ETV
vector 113 Wireless3.host[25].app[0] "TP Vector" ETV
vector 114 Wireless3.host[25].LoRaNic.queue incomingPacketLengths:vector ETV
attr interpolationmode none
attr recordingmode vector
attr source packetLength(packetPushStarted)
attr title "incoming packet lengths"
attr unit b
vector 115 Wireless3.host[25].LoRaNic.queue queueingTime:vector ETV
attr interpolationmode none
attr recordingmode vector
attr source queueingTime(packetPulled)
attr title "queueing times"
attr unit s
vector 116 Wireless3.host[25].LoRaNic.queue outgoingPacketLengths:vector ETV
attr interpolationmode none
attr recordingmode vector
attr source packetLength(packetPulled)
attr title "outgoing packet lengths"
attr unit b
vector 117 Wireless3.host[25].LoRaNic.radio transmissionState:vector ETV
attr interpolationmode sample-hold
attr recordingmode vector
attr source transmissionStateChanged
attr title "Radio transmission state"
vector 118 Wireless3.host[7].app[0] "SF Vector" ETV
vector 119 Wireless3.host[7].app[0] "TP Vector" ETV
vector 120 Wireless3.host[7].LoRaNic.queue incomingPacketLengths:vector ETV
attr interpolationmode none
attr recordingmode vector
attr source packetLength(packetPushStarted)
attr title "incoming packet lengths"
attr unit b
vector 121 Wireless3.host[7].LoRaNic.queue queueingTime:vector ETV
attr interpolationmode none
attr recordingmode vector
attr source queueingTime(packetPulled)
attr title "queueing times"
attr unit s
vector 122 Wireless3.host[7].LoRaNic.queue outgoingPacketLengths:vector ETV
attr interpolationmode none
attr recordingmode vector
attr source packetLength(packetPulled)
attr title "outgoing packet lengths"
attr unit b
vector 123 Wireless3.host[7].LoRaNic.radio transmissionState:vector ETV
attr interpolationmode sample-hold
attr recordingmode vector
attr source transmissionStateChanged
attr title "Radio transmission state"
vector 124 Wireless3.host[17].app[0] "SF Vector" ETV
vector 125 Wireless3.host[17].app[0] "TP Vector" ETV
vector 126 Wireless3.host[17].LoRaNic.queue incomingPacketLengths:vector ETV
attr interpolationmode none
attr recordingmode vector
attr source packetLength(packetPushStarted)
attr title "incoming packet lengths"
attr unit b
vector 127 Wireless3.host[17].LoRaNic.queue queueingTime:vector ETV
attr interpolationmode none
attr recordingmode vector
attr source queueingTime(packetPulled)
attr title "queueing times"
attr unit s
vector 128 Wireless3.host[17].LoRaNic.queue outgoingPacketLengths:vector ETV
attr interpolationmode none
attr recordingmode vector
attr source packetLength(packetPulled)
attr title "outgoing packet lengths"
attr unit b
vector 129 Wireless3.host[17].LoRaNic.radio transmissionState:vector ETV
attr interpolationmode sample-hold
attr recordingmode vector
attr source transmissionStateChanged
attr title "Radio transmission state"
vector 130 Wireless3.host[14].app[0] "SF Vector" ETV
vector 131 Wireless3.host[14].app[0] "TP Vector" ETV
vector 132 Wireless3.host[14].LoRaNic.queue incomingPacketLengths:vector ETV
attr interpolationmode none
attr recordingmode vector
attr source packetLength(packetPushStarted)
attr title "incoming packet lengths"
attr unit b
vector 133 Wireless3.host[14].LoRaNic.queue queueingTime:vector ETV
attr interpolationmode none
attr recordingmode vector
attr source queueingTime(packetPulled)
attr title "queueing times"
attr unit s
vector 134 Wireless3.host[14].LoRaNic.queue outgoingPacketLengths:vector ETV
attr interpolationmode none
attr recordingmode vector
attr source packetLength(packetPulled)
attr title "outgoing packet lengths"
attr unit b
vector 135 Wireless3.host[14].LoRaNic.radio transmissionState:vector ETV
attr interpolationmode sample-hold
attr recordingmode vector
attr source transmissionStateChanged
attr title "Radio transmission state"
vector 136 Wireless3.host[1].app[0] "SF Vector" ETV
vector 137 Wireless3.host[1].app[0] "TP Vector" ETV
vector 138 Wireless3.host[1].LoRaNic.queue incomingPacketLengths:vector ETV
attr interpolationmode none
attr recordingmode vector
attr source packetLength(packetPushStarted)
attr title "incoming packet lengths"
attr unit b
vector 139 Wireless3.host[1].LoRaNic.queue queueingTime:vector ETV
attr interpolationmode none
attr recordingmode vector
attr source queueingTime(packetPulled)
attr title "queueing times"
attr unit s
vector 140 Wireless3.host[1].LoRaNic.queue outgoingPacketLengths:vector ETV
attr interpolationmode none
attr recordingmode vector
attr source packetLength(packetPulled)
attr title "outgoing packet lengths"
attr unit b
vector 141 Wireless3.host[1].LoRaNic.radio transmissionState:vector ETV
attr interpolationmode sample-hold
attr recordingmode vector
attr source transmissionStateChanged
attr title "Radio transmission state"
vector 142 Wireless3.gateway.udp packetSent:vector(packetBytes) ETV
attr interpolationmode none
attr recordingmode vector(packetBytes)
attr source packetSent
attr title "packets sent, packetBytes"
vector 143 Wireless3.gateway.ipv4.arp arpRequestSent:vector(packetBytes) ETV
attr recordingmode vector(packetBytes)
attr source arpRequestSent
attr title "ARP request sent, packetBytes"
vector 144 Wireless3.gateway.ethernet encapPk:vector(packetBytes) ETV
attr interpolationmode none
attr recordingmode vector(packetBytes)
attr source encapPk
attr title "packets encapsulated, packetBytes"
vector 145 Wireless3.gateway.eth[0].queue incomingPacketLengths:vector ETV
attr interpolationmode none
attr recordingmode vector
attr source packetLength(packetPushStarted)
attr title "incoming packet lengths"
attr unit b
vector 146 Wireless3.gateway.eth[0].queue queueingTime:vector ETV
attr interpolationmode none
attr recordingmode vector
attr source queueingTime(packetPulled)
attr title "queueing times"
attr unit s
vector 147 Wireless3.gateway.eth[0].queue outgoingPacketLengths:vector ETV
attr interpolationmode none
attr recordingmode vector
attr source packetLength(packetPulled)
attr title "outgoing packet lengths"
attr unit b
vector 148 Wireless3.gateway.eth[0].mac packetReceivedFromUpper:vector(packetBytes) ETV
attr interpolationmode none
attr recordingmode vector(packetBytes)
attr source packetReceivedFromUpper
attr title "packet bytes from higher layer, packetBytes"
vector 149 Wireless3.gateway.eth[0].mac txPk:vector(packetBytes) ETV
attr interpolationmode none
attr recordingmode vector(packetBytes)
attr source packetSentToLower
attr title "packets transmitted, packetBytes"
vector 150 Wireless3.networkServer.eth[0].mac rxPkOk:vector(packetBytes) ETV
attr interpolationmode none
attr recordingmode vector(packetBytes)
attr source rxPkOk
attr title "packets received OK, packetBytes"
vector 151 Wireless3.networkServer.eth[0].mac passedUpPk:vector(packetBytes) ETV
attr interpolationmode none
attr recordingmode vector(packetBytes)
attr source packetSentToUpper
attr title "packets passed to higher layer, packetBytes"
vector 152 Wireless3.networkServer.ethernet decapPk:vector(packetBytes) ETV
attr interpolationmode none
attr recordingmode vector(packetBytes)
attr source decapPk
attr title "packets decapsulated, packetBytes"
vector 153 Wireless3.networkServer.ipv4.arp arpReplySent:vector(packetBytes) ETV
attr recordingmode vector(packetBytes)
attr source arpReplySent
attr title "ARP replies sent, packetBytes"
vector 154 Wireless3.networkServer.ethernet encapPk:vector(packetBytes) ETV
attr interpolationmode none
attr recordingmode vector(packetBytes)
attr source encapPk
attr title "packets encapsulated, packetBytes"
vector 155 Wireless3.networkServer.eth[0].queue incomingPacketLengths:vector ETV
attr interpolationmode none
attr recordingmode vector
attr source packetLength(packetPushStarted)
attr title "incoming packet lengths"
attr unit b
vector 156 Wireless3.networkServer.eth[0].queue queueingTime:vector ETV
attr interpolationmode none
attr recordingmode vector
attr source queueingTime(packetPulled)
attr title "queueing times"
attr unit s
vector 157 Wireless3.networkServer.eth[0].queue outgoingPacketLengths:vector ETV
attr interpolationmode none
attr recordingmode vector
attr source packetLength(packetPulled)
attr title "outgoing packet lengths"
attr unit b
vector 158 Wireless3.networkServer.eth[0].mac packetReceivedFromUpper:vector(packetBytes) ETV
attr interpolationmode none
attr recordingmode vector(packetBytes)
attr source packetReceivedFromUpper
attr title "packet bytes from higher layer, packetBytes"
vector 159 Wireless3.networkServer.eth[0].mac txPk:vector(packetBytes) ETV
attr interpolationmode none
attr recordingmode vector(packetBytes)
attr source packetSentToLower
attr title "packets transmitted, packetBytes"
vector 160 Wireless3.gateway.eth[0].mac rxPkOk:vector(packetBytes) ETV
attr interpolationmode none
attr recordingmode vector(packetBytes)
attr source rxPkOk
attr title "packets received OK, packetBytes"
vector 161 Wireless3.gateway.eth[0].mac passedUpPk:vector(packetBytes) ETV
attr interpolationmode none
attr recordingmode vector(packetBytes)
attr source packetSentToUpper
attr title "packets passed to higher layer, packetBytes"
vector 162 Wireless3.gateway.ethernet decapPk:vector(packetBytes) ETV
attr interpolationmode none
attr recordingmode vector(packetBytes)
attr source decapPk
attr title "packets decapsulated, packetBytes"
vector 163 Wireless3.networkServer.udp packetReceived:vector(packetBytes) ETV
attr interpolationmode none
attr recordingmode vector(packetBytes)
attr source packetReceived
attr title "packets received, packetBytes"
vector 164 Wireless3.networkServer.app[0] "Vector of SNIR per node" ETV
vector 165 Wireless3.networkServer.app[0] "Vector of RSSI per node" ETV
vector 166 Wireless3.host[4].LoRaNic.radio receptionState:vector ETV
attr interpolationmode sample-hold
attr recordingmode vector
attr source receptionStateChanged
attr title "Radio reception state"
vector 167 Wireless3.host[9].LoRaNic.radio receptionState:vector ETV
attr interpolationmode sample-hold
attr recordingmode vector
attr source receptionStateChanged
attr title "Radio reception state"
vector 168 Wireless3.host[24].LoRaNic.radio receptionState:vector ETV
attr interpolationmode sample-hold
attr recordingmode vector
attr source receptionStateChanged
attr title "Radio reception state"
vector 169 Wireless3.host[25].LoRaNic.radio receptionState:vector ETV
attr interpolationmode sample-hold
attr recordingmode vector
attr source receptionStateChanged
attr title "Radio reception state"
vector 170 Wireless3.host[12].app[0] "SF Vector" ETV
vector 171 Wireless3.host[12].app[0] "TP Vector" ETV
vector 172 Wireless3.host[12].LoRaNic.queue incomingPacketLengths:vector ETV
attr interpolationmode none
attr recordingmode vector
attr source packetLength(packetPushStarted)
attr title "incoming packet lengths"
attr unit b
vector 173 Wireless3.host[12].LoRaNic.queue queueingTime:vector ETV
attr interpolationmode none
attr recordingmode vector
attr source queueingTime(packetPulled)
attr title "queueing times"
attr unit s
vector 174 Wireless3.host[12].LoRaNic.queue outgoingPacketLengths:vector ETV
attr interpolationmode none
attr recordingmode vector
attr source packetLength(packetPulled)
attr title "outgoing packet lengths"
attr unit b
vector 175 Wireless3.host[12].LoRaNic.radio transmissionState:vector ETV
attr interpolationmode sample-hold
attr recordingmode vector
attr source transmissionStateChanged
attr title "Radio transmission state"
vector 176 Wireless3.host[7].LoRaNic.radio receptionState:vector ETV
attr interpolationmode sample-hold
attr recordingmode vector
attr source receptionStateChanged
attr title "Radio reception state"
vector 177 Wireless3.host[17].LoRaNic.radio receptionState:vector ETV
attr interpolationmode sample-hold
attr recordingmode vector
attr source receptionStateChanged
attr title "Radio reception state"
vector 178 Wireless3.host[13].app[0] "SF Vector" ETV
vector 179 Wireless3.host[13].app[0] "TP Vector" ETV
vector 180 Wireless3.host[13].LoRaNic.queue incomingPacketLengths:vector ETV
attr interpolationmode none
attr recordingmode vector
attr source packetLength(packetPushStarted)
attr title "incoming packet lengths"
attr unit b
vector 181 Wireless3.host[13].LoRaNic.queue queueingTime:vector ETV
attr interpolationmode none
attr recordingmode vector
attr source queueingTime(packetPulled)
attr title "queueing times"
attr unit s
vector 182 Wireless3.host[13].LoRaNic.queue outgoingPacketLengths:vector ETV
attr interpolationmode none
attr recordingmode vector
attr source packetLength(packetPulled)
attr title "outgoing packet lengths"
attr unit b
vector 183 Wireless3.host[13].LoRaNic.radio transmissionState:vector ETV
attr interpolationmode sample-hold
attr recordingmode vector
attr source transmissionStateChanged
attr title "Radio transmission state"
vector 184 Wireless3.host[16].app[0] "SF Vector" ETV
vector 185 Wireless3.host[16].app[0] "TP Vector" ETV
vector 186 Wireless3.host[16].LoRaNic.queue incomingPacketLengths:vector ETV
attr interpolationmode none
attr recordingmode vector
attr source packetLength(packetPushStarted)
attr title "incoming packet lengths"
attr unit b
vector 187 Wireless3.host[16].LoRaNic.queue queueingTime:vector ETV
attr interpolationmode none
attr recordingmode vector
attr source queueingTime(packetPulled)
attr title "queueing times"
attr unit s
vector 188 Wireless3.host[16].LoRaNic.queue outgoingPacketLengths:vector ETV
attr interpolationmode none
attr recordingmode vector
attr source packetLength(packetPulled)
attr title "outgoing packet lengths"
attr unit b
vector 189 Wireless3.host[16].LoRaNic.radio transmissionState:vector ETV
attr interpolationmode sample-hold
attr recordingmode vector
attr source transmissionStateChanged
attr title "Radio transmission state"
vector 190 Wireless3.host[14].LoRaNic.radio receptionState:vector ETV
attr interpolationmode sample-hold
attr recordingmode vector
attr source receptionStateChanged
attr title "Radio reception state"
vector 191 Wireless3.host[1].LoRaNic.radio receptionState:vector ETV
attr interpolationmode sample-hold
attr recordingmode vector
attr source receptionStateChanged
attr title "Radio reception state"
vector 192 Wireless3.host[21].app[0] "SF Vector" ETV
vector 193 Wireless3.host[21].app[0] "TP Vector" ETV
vector 194 Wireless3.host[21].LoRaNic.queue incomingPacketLengths:vector ETV
attr interpolationmode none
attr recordingmode vector
attr source packetLength(packetPushStarted)
attr title "incoming packet lengths"
attr unit b
vector 195 Wireless3.host[21].LoRaNic.queue queueingTime:vector ETV
attr interpolationmode none
attr recordingmode vector
attr source queueingTime(packetPulled)
attr title "queueing times"
attr unit s
vector 196 Wireless3.host[21].LoRaNic.queue outgoingPacketLengths:vector ETV
attr interpolationmode none
attr recordingmode vector
attr source packetLength(packetPulled)
attr title "outgoing packet lengths"
attr unit b
vector 197 Wireless3.host[21].LoRaNic.radio transmissionState:vector ETV
attr interpolationmode sample-hold
attr recordingmode vector
attr source transmissionStateChanged
attr title "Radio transmission state"
vector 198 Wireless3.host[22].app[0] "SF Vector" ETV
vector 199 Wireless3.host[22].app[0] "TP Vector" ETV
vector 200 Wireless3.host[22].LoRaNic.queue incomingPacketLengths:vector ETV
attr interpolationmode none
attr recordingmode vector
attr source packetLength(packetPushStarted)
attr title "incoming packet lengths"
attr unit b
vector 201 Wireless3.host[22].LoRaNic.queue queueingTime:vector ETV
attr interpolationmode none
attr recordingmode vector
attr source queueingTime(packetPulled)
attr title "queueing times"
attr unit s
vector 202 Wireless3.host[22].LoRaNic.queue outgoingPacketLengths:vector ETV
attr interpolationmode none
attr recordingmode vector
attr source packetLength(packetPulled)
attr title "outgoing packet lengths"
attr unit b
vector 203 Wireless3.host[22].LoRaNic.radio transmissionState:vector ETV
attr interpolationmode sample-hold
attr recordingmode vector
attr source transmissionStateChanged
attr title "Radio transmission state"
vector 204 Wireless3.host[25].LoRaNic.radio minSnir:vector ETV
attr recordingmode vector
attr source minimumSnir(packetSentToUpper)
attr title "Min SNIR"
vector 205 Wireless3.host[25].LoRaNic.radio packetErrorRate:vector ETV
attr recordingmode vector
attr source packetErrorRate(packetSentToUpper)
attr title "Packet error rate"
vector 206 Wireless3.host[25].LoRaNic.radio bitErrorRate:vector ETV
attr recordingmode vector
attr source bitErrorRate(packetSentToUpper)
attr title "Bit error rate"
vector 207 Wireless3.host[25].LoRaNic.radio symbolErrorRate:vector ETV
attr recordingmode vector
attr source symbolErrorRate(packetSentToUpper)
attr title "Symbol error rate"
vector 208 Wireless3.host[9].LoRaNic.radio minSnir:vector ETV
attr recordingmode vector
attr source minimumSnir(packetSentToUpper)
attr title "Min SNIR"
vector 209 Wireless3.host[9].LoRaNic.radio packetErrorRate:vector ETV
attr recordingmode vector
attr source packetErrorRate(packetSentToUpper)
attr title "Packet error rate"
vector 210 Wireless3.host[9].LoRaNic.radio bitErrorRate:vector ETV
attr recordingmode vector
attr source bitErrorRate(packetSentToUpper)
attr title "Bit error rate"
vector 211 Wireless3.host[9].LoRaNic.radio symbolErrorRate:vector ETV
attr recordingmode vector
attr source symbolErrorRate(packetSentToUpper)
attr title "Symbol error rate"
vector 212 Wireless3.host[6].app[0] "SF Vector" ETV
vector 213 Wireless3.host[6].app[0] "TP Vector" ETV
vector 214 Wireless3.host[6].LoRaNic.queue incomingPacketLengths:vector ETV
attr interpolationmode none
attr recordingmode vector
attr source packetLength(packetPushStarted)
attr title "incoming packet lengths"
attr unit b
vector 215 Wireless3.host[6].LoRaNic.queue queueingTime:vector ETV
attr interpolationmode none
attr recordingmode vector
attr source queueingTime(packetPulled)
attr title "queueing times"
attr unit s
vector 216 Wireless3.host[6].LoRaNic.queue outgoingPacketLengths:vector ETV
attr interpolationmode none
attr recordingmode vector
attr source packetLength(packetPulled)
attr title "outgoing packet lengths"
attr unit b
vector 217 Wireless3.host[6].LoRaNic.radio transmissionState:vector ETV
attr interpolationmode sample-hold
attr recordingmode vector
attr source transmissionStateChanged
attr title "Radio transmission state"
vector 218 Wireless3.host[12].LoRaNic.radio receptionState:vector ETV
attr interpolationmode sample-hold
attr recordingmode vector
attr source receptionStateChanged
attr title "Radio reception state"
vector 219 Wireless3.host[13].LoRaNic.radio receptionState:vector ETV
attr interpolationmode sample-hold
attr recordingmode vector
attr source receptionStateChanged
attr title "Radio reception state"
vector 220 Wireless3.host[16].LoRaNic.radio receptionState:vector ETV
attr interpolationmode sample-hold
attr recordingmode vector
attr source receptionStateChanged
attr title "Radio reception state"
vector 221 Wireless3.host[19].app[0] "SF Vector" ETV
vector 222 Wireless3.host[19].app[0] "TP Vector" ETV
vector 223 Wireless3.host[19].LoRaNic.queue incomingPacketLengths:vector ETV
attr interpolationmode none
attr recordingmode vector
attr source packetLength(packetPushStarted)
attr title "incoming packet lengths"
attr unit b
vector 224 Wireless3.host[19].LoRaNic.queue queueingTime:vector ETV
attr interpolationmode none
attr recordingmode vector
attr source queueingTime(packetPulled)
attr title "queueing times"
attr unit s
vector 225 Wireless3.host[19].LoRaNic.queue outgoingPacketLengths:vector ETV
attr interpolationmode none
attr recordingmode vector
attr source packetLength(packetPulled)
attr title "outgoing packet lengths"
attr unit b
vector 226 Wireless3.host[19].LoRaNic.radio transmissionState:vector ETV
attr interpolationmode sample-hold
attr recordingmode vector
attr source transmissionStateChanged
attr title "Radio transmission state"
vector 227 Wireless3.host[4].LoRaNic.radio minSnir:vector ETV
attr recordingmode vector
attr source minimumSnir(packetSentToUpper)
attr title "Min SNIR"
vector 228 Wireless3.host[4].LoRaNic.radio packetErrorRate:vector ETV
attr recordingmode vector
attr source packetErrorRate(packetSentToUpper)
attr title "Packet error rate"
vector 229 Wireless3.host[4].LoRaNic.radio bitErrorRate:vector ETV
attr recordingmode vector
attr source bitErrorRate(packetSentToUpper)
attr title "Bit error rate"
vector 230 Wireless3.host[4].LoRaNic.radio symbolErrorRate:vector ETV
attr recordingmode vector
attr source symbolErrorRate(packetSentToUpper)
attr title "Symbol error rate"
vector 231 Wireless3.host[7].LoRaNic.radio minSnir:vector ETV
attr recordingmode vector
attr source minimumSnir(packetSentToUpper)
attr title "Min SNIR"
vector 232 Wireless3.host[7].LoRaNic.radio packetErrorRate:vector ETV
attr recordingmode vector
attr source packetErrorRate(packetSentToUpper)
attr title "Packet error rate"
vector 233 Wireless3.host[7].LoRaNic.radio bitErrorRate:vector ETV
attr recordingmode vector
attr source bitErrorRate(packetSentToUpper)
attr title "Bit error rate"
vector 234 Wireless3.host[7].LoRaNic.radio symbolErrorRate:vector ETV
attr recordingmode vector
attr source symbolErrorRate(packetSentToUpper)
attr title "Symbol error rate"
vector 235 Wireless3.networkServer.app[0] "Vector of SNIR per node" ETV
vector 236 Wireless3.networkServer.app[0] "Vector of RSSI per node" ETV
vector 237 Wireless3.host[18].app[0] "SF Vector" ETV
vector 238 Wireless3.host[18].app[0] "TP Vector" ETV
vector 239 Wireless3.host[18].LoRaNic.queue incomingPacketLengths:vector ETV
attr interpolationmode none
attr recordingmode vector
attr source packetLength(packetPushStarted)
attr title "incoming packet lengths"
attr unit b
vector 240 Wireless3.host[18].LoRaNic.queue queueingTime:vector ETV
attr interpolationmode none
attr recordingmode vector
attr source queueingTime(packetPulled)
attr title "queueing times"
attr unit s
vector 241 Wireless3.host[18].LoRaNic.queue outgoingPacketLengths:vector ETV
attr interpolationmode none
attr recordingmode vector
attr source packetLength(packetPulled)
attr title "outgoing packet lengths"
attr unit b
vector 242 Wireless3.host[18].LoRaNic.radio transmissionState:vector ETV
attr interpolationmode sample-hold
attr recordingmode vector
attr source transmissionStateChanged
attr title "Radio transmission state"
vector 243 Wireless3.host[8].app[0] "SF Vector" ETV
vector 244 Wireless3.host[8].app[0] "TP Vector" ETV
vector 245 Wireless3.host[8].LoRaNic.queue incomingPacketLengths:vector ETV
attr interpolationmode none
attr recordingmode vector
attr source packetLength(packetPushStarted)
attr title "incoming packet lengths"
attr unit b
vector 246 Wireless3.host[8].LoRaNic.queue queueingTime:vector ETV
attr interpolationmode none
attr recordingmode vector
attr source queueingTime(packetPulled)
attr title "queueing times"
attr unit s
vector 247 Wireless3.host[8].LoRaNic.queue outgoingPacketLengths:vector ETV
attr interpolationmode none
attr recordingmode vector
attr source packetLength(packetPulled)
attr title "outgoing packet lengths"
attr unit b
vector 248 Wireless3.host[8].LoRaNic.radio transmissionState:vector ETV
attr interpolationmode sample-hold
attr recordingmode vector
attr source transmissionStateChanged
attr title "Radio transmission state"
vector 249 Wireless3.host[23].app[0] "SF Vector" ETV
vector 250 Wireless3.host[23].app[0] "TP Vector" ETV
vector 251 Wireless3.host[23].LoRaNic.queue incomingPacketLengths:vector ETV
attr interpolationmode none
attr recordingmode vector
attr source packetLength(packetPushStarted)
attr title "incoming packet lengths"
attr unit b
vector 252 Wireless3.host[23].LoRaNic.queue queueingTime:vector ETV
attr interpolationmode none
attr recordingmode vector
attr source queueingTime(packetPulled)
attr title "queueing times"
attr unit s
vector 253 Wireless3.host[23].LoRaNic.queue outgoingPacketLengths:vector ETV
attr interpolationmode none
attr recordingmode vector
attr source packetLength(packetPulled)
attr title "outgoing packet lengths"
attr unit b
vector 254 Wireless3.host[23].LoRaNic.radio transmissionState:vector ETV
attr interpolationmode sample-hold
attr recordingmode vector
attr source transmissionStateChanged
attr title "Radio transmission state"
vector 255 Wireless3.host[21].LoRaNic.radio receptionState:vector ETV
attr interpolationmode sample-hold
attr recordingmode vector
attr source receptionStateChanged
attr title "Radio reception state"
vector 256 Wireless3.host[22].LoRaNic.radio receptionState:vector ETV
attr interpolationmode sample-hold
attr recordingmode vector
attr source receptionStateChanged
attr title "Radio reception state"
vector 257 Wireless3.host[6].LoRaNic.radio receptionState:vector ETV
attr interpolationmode sample-hold
attr recordingmode vector
attr source receptionStateChanged
attr title "Radio reception state"
vector 258 Wireless3.host[20].app[0] "SF Vector" ETV
vector 259 Wireless3.host[20].app[0] "TP Vector" ETV
vector 260 Wireless3.host[20].LoRaNic.queue incomingPacketLengths:vector ETV
attr interpolationmode none
attr recordingmode vector
attr source packetLength(packetPushStarted)
attr title "incoming packet lengths"
attr unit b
vector 261 Wireless3.host[20].LoRaNic.queue queueingTime:vector ETV
attr interpolationmode none
attr recordingmode vector
attr source queueingTime(packetPulled)
attr title "queueing times"
attr unit s
vector 262 Wireless3.host[20].LoRaNic.queue outgoingPacketLengths:vector ETV
attr interpolationmode none
attr recordingmode vector
attr source packetLength(packetPulled)
attr title "outgoing packet lengths"
attr unit b
vector 263 Wireless3.host[20].LoRaNic.radio transmissionState:vector ETV
attr interpolationmode sample-hold
attr recordingmode vector
attr source transmissionStateChanged
attr title "Radio transmission state"
vector 264 Wireless3.host[17].LoRaNic.radio minSnir:vector ETV
attr recordingmode vector
attr source minimumSnir(packetSentToUpper)
attr title "Min SNIR"
vector 265 Wireless3.host[17].LoRaNic.radio packetErrorRate:vector ETV
attr recordingmode vector
attr source packetErrorRate(packetSentToUpper)
attr title "Packet error rate"
vector 266 Wireless3.host[17].LoRaNic.radio bitErrorRate:vector ETV
attr recordingmode vector
attr source bitErrorRate(packetSentToUpper)
attr title "Bit error rate"
vector 267 Wireless3.host[17].LoRaNic.radio symbolErrorRate:vector ETV
attr recordingmode vector
attr source symbolErrorRate(packetSentToUpper)
attr title "Symbol error rate"
vector 268 Wireless3.host[24].LoRaNic.radio minSnir:vector ETV
attr recordingmode vector
attr source minimumSnir(packetSentToUpper)
attr title "Min SNIR"
vector 269 Wireless3.host[24].LoRaNic.radio packetErrorRate:vector ETV
attr recordingmode vector
attr source packetErrorRate(packetSentToUpper)
attr title "Packet error rate"
vector 270 Wireless3.host[24].LoRaNic.radio bitErrorRate:vector ETV
attr recordingmode vector
attr source bitErrorRate(packetSentToUpper)
attr title "Bit error rate"
vector 271 Wireless3.host[24].LoRaNic.radio symbolErrorRate:vector ETV
attr recordingmode vector
attr source symbolErrorRate(packetSentToUpper)
attr title "Symbol error rate"
vector 272 Wireless3.host[1].LoRaNic.radio minSnir:vector ETV
attr recordingmode vector
attr source minimumSnir(packetSentToUpper)
attr title "Min SNIR"
vector 273 Wireless3.host[1].LoRaNic.radio packetErrorRate:vector ETV
attr recordingmode vector
attr source packetErrorRate(packetSentToUpper)
attr title "Packet error rate"
vector 274 Wireless3.host[1].LoRaNic.radio bitErrorRate:vector ETV
attr recordingmode vector
attr source bitErrorRate(packetSentToUpper)
attr title "Bit error rate"
vector 275 Wireless3.host[1].LoRaNic.radio symbolErrorRate:vector ETV
attr recordingmode vector
attr source symbolErrorRate(packetSentToUpper)
attr title "Symbol error rate"
vector 276 Wireless3.host[12].LoRaNic.radio minSnir:vector ETV
attr recordingmode vector
attr source minimumSnir(packetSentToUpper)
attr title "Min SNIR"
vector 277 Wireless3.host[12].LoRaNic.radio packetErrorRate:vector ETV
attr recordingmode vector
attr source packetErrorRate(packetSentToUpper)
attr title "Packet error rate"
vector 278 Wireless3.host[12].LoRaNic.radio bitErrorRate:vector ETV
attr recordingmode vector
attr source bitErrorRate(packetSentToUpper)
attr title "Bit error rate"
vector 279 Wireless3.host[12].LoRaNic.radio symbolErrorRate:vector ETV
attr recordingmode vector
attr source symbolErrorRate(packetSentToUpper)
attr title "Symbol error rate"
vector 280 Wireless3.host[16].LoRaNic.radio minSnir:vector ETV
attr recordingmode vector
attr source minimumSnir(packetSentToUpper)
attr title "Min SNIR"
vector 281 Wireless3.host[16].LoRaNic.radio packetErrorRate:vector ETV
attr recordingmode vector
attr source packetErrorRate(packetSentToUpper)
attr title "Packet error rate"
vector 282 Wireless3.host[16].LoRaNic.radio bitErrorRate:vector ETV
attr recordingmode vector
attr source bitErrorRate(packetSentToUpper)
attr title "Bit error rate"
vector 283 Wireless3.host[16].LoRaNic.radio symbolErrorRate:vector ETV
attr recordingmode vector
attr source symbolErrorRate(packetSentToUpper)
attr title "Symbol error rate"
vector 284 Wireless3.networkServer.app[0] "Vector of SNIR per node" ETV
vector 285 Wireless3.networkServer.app[0] "Vector of RSSI per node" ETV
vector 286 Wireless3.host[19].LoRaNic.radio receptionState:vector ETV
attr interpolationmode sample-hold
attr recordingmode vector
attr source receptionStateChanged
attr title "Radio reception state"
vector 287 Wireless3.host[21].LoRaNic.radio minSnir:vector ETV
attr recordingmode vector
attr source minimumSnir(packetSentToUpper)
attr title "Min SNIR"
vector 288 Wireless3.host[21].LoRaNic.radio packetErrorRate:vector ETV
attr recordingmode vector
attr source packetErrorRate(packetSentToUpper)
attr title "Packet error rate"
vector 289 Wireless3.host[21].LoRaNic.radio bitErrorRate:vector ETV
attr recordingmode vector
attr source bitErrorRate(packetSentToUpper)
attr title "Bit error rate"
vector 290 Wireless3.host[21].LoRaNic.radio symbolErrorRate:vector ETV
attr recordingmode vector
attr source symbolErrorRate(packetSentToUpper)
attr title "Symbol error rate"
vector 291 Wireless3.host[10].app[0] "SF Vector" ETV
vector 292 Wireless3.host[10].app[0] "TP Vector" ETV
vector 293 Wireless3.host[10].LoRaNic.queue incomingPacketLengths:vector ETV
attr interpolationmode none
attr recordingmode vector
attr source packetLength(packetPushStarted)
attr title "incoming packet lengths"
attr unit b
vector 294 Wireless3.host[10].LoRaNic.queue queueingTime:vector ETV
attr interpolationmode none
attr recordingmode vector
attr source queueingTime(packetPulled)
attr title "queueing times"
attr unit s
vector 295 Wireless3.host[10].LoRaNic.queue outgoingPacketLengths:vector ETV
attr interpolationmode none
attr recordingmode vector
attr source packetLength(packetPulled)
attr title "outgoing packet lengths"
attr unit b
vector 296 Wireless3.host[10].LoRaNic.radio transmissionState:vector ETV
attr interpolationmode sample-hold
attr recordingmode vector
attr source transmissionStateChanged
attr title "Radio transmission state"
vector 297 Wireless3.host[18].LoRaNic.radio receptionState:vector ETV
attr interpolationmode sample-hold
attr recordingmode vector
attr source receptionStateChanged
attr title "Radio reception state"
vector 298 Wireless3.host[8].LoRaNic.radio receptionState:vector ETV
attr interpolationmode sample-hold
attr recordingmode vector
attr source receptionStateChanged
attr title "Radio reception state"
vector 299 Wireless3.host[23].LoRaNic.radio receptionState:vector ETV
attr interpolationmode sample-hold
attr recordingmode vector
attr source receptionStateChanged
attr title "Radio reception state"
vector 300 Wireless3.host[20].LoRaNic.radio receptionState:vector ETV
attr interpolationmode sample-hold
attr recordingmode vector
attr source receptionStateChanged
attr title "Radio reception state"
vector 301 Wireless3.host[19].LoRaNic.radio minSnir:vector ETV
attr recordingmode vector
attr source minimumSnir(packetSentToUpper)
attr title "Min SNIR"
vector 302 Wireless3.host[19].LoRaNic.radio packetErrorRate:vector ETV
attr recordingmode vector
attr source packetErrorRate(packetSentToUpper)
attr title "Packet error rate"
vector 303 Wireless3.host[19].LoRaNic.radio bitErrorRate:vector ETV
attr recordingmode vector
attr source bitErrorRate(packetSentToUpper)
attr title "Bit error rate"
vector 304 Wireless3.host[19].LoRaNic.radio symbolErrorRate:vector ETV
attr recordingmode vector
attr source symbolErrorRate(packetSentToUpper)
attr title "Symbol error rate"
vector 305 Wireless3.host[13].LoRaNic.radio minSnir:vector ETV
attr recordingmode vector
attr source minimumSnir(packetSentToUpper)
attr title "Min SNIR"
vector 306 Wireless3.host[13].LoRaNic.radio packetErrorRate:vector ETV
attr recordingmode vector
[...]
461	13466	588.76573234288	0
461	13466	588.86573234288	0
461	13466	588.96573234288	0
461	13466	589.06573234288	0
461	13466	589.16573234288	0
461	13466	589.26573234288	0
461	13466	589.36573234288	0
461	13466	589.46573234288	0
461	13466	589.56573234288	0
461	13466	589.66573234288	0
461	13466	589.76573234288	0
461	13466	589.86573234288	0
461	13466	589.96573234288	0
461	13466	590.06573234288	0
461	13466	590.16573234288	0
461	13466	590.26573234288	0
461	13466	590.36573234288	0
461	13544	590.46573234288	5840
461	13544	590.56573234288	0
461	13544	590.66573234288	0
461	13544	590.76573234288	0
461	13544	590.86573234288	0
461	13544	590.96573234288	0
461	13544	591.06573234288	0
461	13544	591.16573234288	0
461	13544	591.26573234288	0
461	13544	591.36573234288	0
461	13544	591.46573234288	0
461	13544	591.56573234288	0
461	13544	591.66573234288	0
461	13544	591.76573234288	0
461	13544	591.86573234288	0
461	13544	591.96573234288	0
461	13544	592.06573234288	0
461	13544	592.16573234288	0
461	13544	592.26573234288	0
461	13544	592.36573234288	0
461	13544	592.46573234288	0
461	13544	592.56573234288	0
461	13544	592.66573234288	0
461	13544	592.76573234288	0
461	13544	592.86573234288	0
461	13544	592.96573234288	0
461	13544	593.06573234288	0
461	13544	593.16573234288	0
461	13544	593.26573234288	0
461	13544	593.36573234288	0
461	13544	593.46573234288	0
461	13560	593.56573234288	5840
461	13560	593.66573234288	0
461	13560	593.76573234288	0
461	13560	593.86573234288	0
461	13560	593.96573234288	0
461	13560	594.06573234288	0
461	13560	594.16573234288	0
461	13560	594.26573234288	0
461	13560	594.36573234288	0
461	13560	594.46573234288	0
461	13560	594.56573234288	0
461	13560	594.66573234288	0
461	13560	594.76573234288	0
461	13560	594.86573234288	0
461	13560	594.96573234288	0
461	13560	595.06573234288	0
461	13560	595.16573234288	0
461	13560	595.26573234288	0
461	13560	595.36573234288	0
461	13560	595.46573234288	0
461	13560	595.56573234288	0
461	13560	595.66573234288	0
461	13560	595.76573234288	0
461	13560	595.86573234288	0
461	13560	595.96573234288	0
461	13560	596.06573234288	0
461	13560	596.16573234288	0
461	13560	596.26573234288	0
461	13560	596.36573234288	0
461	13560	596.46573234288	0
461	13560	596.56573234288	0
461	13560	596.66573234288	0
461	13560	596.76573234288	0
461	13560	596.86573234288	0
461	13560	596.96573234288	0
461	13560	597.06573234288	0
461	13560	597.16573234288	0
461	13560	597.26573234288	0
461	13560	597.36573234288	0
461	13560	597.46573234288	0
461	13560	597.56573234288	0
461	13560	597.66573234288	0
461	13560	597.76573234288	0
461	13560	597.86573234288	0
461	13560	597.96573234288	0
461	13560	598.06573234288	0
461	13560	598.16573234288	0
461	13560	598.26573234288	0
461	13560	598.36573234288	0
461	13560	598.46573234288	0
461	13560	598.56573234288	0
461	13560	598.66573234288	0
461	13560	598.76573234288	0
461	13560	598.86573234288	0
461	13560	598.96573234288	0
461	13560	599.06573234288	0
461	13560	599.16573234288	0
461	13560	599.26573234288	0
461	13560	599.36573234288	0
461	13560	599.46573234288	0
461	13560	599.56573234288	0
461	13560	599.66573234288	0
461	13560	599.76573234288	0
461	13560	599.86573234288	0
461	13560	599.96573234288	0
461	13560	600	0
462	11692	543.26573234288	-1014.1313596877
462	11765	543.36573234288	0
462	11765	543.46573234288	0
462	11765	543.56573234288	0
462	11765	543.66573234288	0
462	11765	543.76573234288	0
462	11765	543.86573234288	0
462	11765	543.96573234288	0
462	11765	544.06573234288	0
462	11765	544.16573234288	0
462	11765	544.26573234288	0
462	11765	544.36573234288	0
462	11765	544.46573234288	0
462	11765	544.56573234288	0
462	11853	544.66573234288	9520
462	11853	544.76573234288	0
462	11853	544.86573234288	0
462	11853	544.96573234288	0
462	11853	545.06573234288	0
462	11853	545.16573234288	0
462	11853	545.26573234288	0
462	11853	545.36573234288	0
462	11853	545.46573234288	0
462	11853	545.56573234288	0
462	11853	545.66573234288	0
462	11853	545.76573234288	0
462	11853	545.86573234288	0
462	11853	545.96573234288	0
462	11853	546.06573234288	0
462	11853	546.16573234288	0
462	11932	546.26573234288	5840
462	11932	546.36573234288	0
462	11932	546.46573234288	0
462	11932	546.56573234288	0
462	11932	546.66573234288	0
462	11932	546.76573234288	0
462	11932	546.86573234288	0
462	11932	546.96573234288	0
462	11932	547.06573234288	0
462	11932	547.16573234288	0
462	11932	547.26573234288	0
462	11932	547.36573234288	0
462	11932	547.46573234288	0
462	11932	547.56573234288	0
462	11932	547.66573234288	0
462	11932	547.76573234288	0
462	11932	547.86573234288	0
462	11932	547.96573234288	0
462	11932	548.06573234288	0
462	11932	548.16573234288	0
462	11932	548.26573234288	0
462	12037	548.36573234288	5840
462	12037	548.46573234288	0
462	12037	548.56573234288	0
462	12037	548.66573234288	0
462	12037	548.76573234288	0
462	12037	548.86573234288	0
462	12037	548.96573234288	0
462	12037	549.06573234288	0
462	12037	549.16573234288	0
462	12037	549.26573234288	0
462	12037	549.36573234288	0
462	12037	549.46573234288	0
462	12037	549.56573234288	0
462	12037	549.66573234288	0
462	12037	549.76573234288	0
462	12037	549.86573234288	0
462	12037	549.96573234288	0
462	12037	550.06573234288	0
462	12152	550.16573234288	5840
462	12152	550.26573234288	0
462	12152	550.36573234288	0
462	12152	550.46573234288	0
462	12152	550.56573234288	0
462	12152	550.66573234288	0
462	12152	550.76573234288	0
462	12152	550.86573234288	0
462	12152	550.96573234288	0
462	12152	551.06573234288	0
462	12152	551.16573234288	0
462	12152	551.26573234288	0
462	12152	551.36573234288	0
462	12152	551.46573234288	0
462	12152	551.56573234288	0
462	12152	551.66573234288	0
462	12152	551.76573234288	0
462	12152	551.86573234288	0
462	12152	551.96573234288	0
462	12152	552.06573234288	0
462	12152	552.16573234288	0
462	12152	552.26573234288	0
462	12152	552.36573234288	0
462	12152	552.46573234288	0
462	12152	552.56573234288	0
462	12152	552.66573234288	0
462	12152	552.76573234288	0
462	12152	552.86573234288	0
462	12152	552.96573234288	0
462	12152	553.06573234288	0
462	12152	553.16573234288	0
462	12152	553.26573234288	0
462	12152	553.36573234288	0
462	12152	553.46573234288	0
462	12152	553.56573234288	0
462	12152	553.66573234288	0
462	12152	553.76573234288	0
462	12152	553.86573234288	0
462	12152	553.96573234288	0
462	12152	554.06573234288	0
462	12152	554.16573234288	0
462	12152	554.26573234288	0
462	12152	554.36573234288	0
462	12152	554.46573234288	0
462	12152	554.56573234288	0
462	12152	554.66573234288	0
462	12152	554.76573234288	0
462	12152	554.86573234288	0
462	12152	554.96573234288	0
462	12152	555.06573234288	0
462	12152	555.16573234288	0
462	12152	555.26573234288	0
462	12152	555.36573234288	0
462	12152	555.46573234288	0
462	12152	555.56573234288	0
462	12152	555.66573234288	0
462	12152	555.76573234288	0
462	12152	555.86573234288	0
462	12152	555.96573234288	0
462	12152	556.06573234288	0
462	12229	556.16573234288	5840
462	12229	556.26573234288	0
462	12229	556.36573234288	0
462	12229	556.46573234288	0
462	12229	556.56573234288	0
462	12229	556.66573234288	0
462	12229	556.76573234288	0
462	12229	556.86573234288	0
462	12229	556.96573234288	0
462	12229	557.06573234288	0
462	12229	557.16573234288	0
462	12229	557.26573234288	0
462	12229	557.36573234288	0
462	12229	557.46573234288	0
462	12229	557.56573234288	0
462	12229	557.66573234288	0
462	12229	557.76573234288	0
462	12229	557.86573234288	0
462	12229	557.96573234288	0
462	12310	558.06573234288	5840
462	12310	558.16573234288	0
462	12310	558.26573234288	0
462	12310	558.36573234288	0
462	12310	558.46573234288	0
462	12310	558.56573234288	0
462	12310	558.66573234288	0
462	12310	558.76573234288	0
462	12310	558.86573234288	0
462	12310	558.96573234288	0
462	12310	559.06573234288	0
462	12310	559.16573234288	0
462	12310	559.26573234288	0
462	12310	559.36573234288	0
462	12310	559.46573234288	0
462	12310	559.56573234288	0
462	12310	559.66573234288	0
462	12310	559.76573234288	0
462	12310	559.86573234288	0
462	12310	559.96573234288	0
462	12310	560.06573234288	0
462	12310	560.16573234288	0
462	12310	560.26573234288	0
462	12310	560.36573234288	0
462	12310	560.46573234288	0
462	12310	560.56573234288	0
462	12310	560.66573234288	0
462	12310	560.76573234288	0
462	12310	560.86573234288	0
462	12310	560.96573234288	0
462	12310	561.06573234288	0
462	12310	561.16573234288	0
462	12387	561.26573234288	5840
462	12387	561.36573234288	0
462	12387	561.46573234288	0
462	12387	561.56573234288	0
462	12387	561.66573234288	0
462	12387	561.76573234288	0
462	12387	561.86573234288	0
462	12387	561.96573234288	0
462	12387	562.06573234288	0
462	12387	562.16573234288	0
462	12387	562.26573234288	0
462	12387	562.36573234288	0
462	12387	562.46573234288	0
462	12387	562.56573234288	0
462	12387	562.66573234288	0
462	12387	562.76573234288	0
462	12387	562.86573234288	0
462	12387	562.96573234288	0
462	12387	563.06573234288	0
462	12387	563.16573234288	0
462	12387	563.26573234288	0
462	12387	563.36573234288	0
462	12387	563.46573234288	0
462	12387	563.56573234288	0
462	12387	563.66573234288	0
462	12387	563.76573234288	0
462	12387	563.86573234288	0
462	12465	563.96573234288	5840
462	12465	564.06573234288	0
462	12465	564.16573234288	0
462	12465	564.26573234288	0
462	12465	564.36573234288	0
462	12465	564.46573234288	0
462	12465	564.56573234288	0
462	12465	564.66573234288	0
462	12465	564.76573234288	0
462	12465	564.86573234288	0
462	12465	564.96573234288	0
462	12465	565.06573234288	0
462	12465	565.16573234288	0
462	12465	565.26573234288	0
462	12465	565.36573234288	0
462	12465	565.46573234288	0
462	12465	565.56573234288	0
462	12465	565.66573234288	0
462	12465	565.76573234288	0
462	12465	565.86573234288	0
462	12465	565.96573234288	0
462	12465	566.06573234288	0
462	12465	566.16573234288	0
462	12465	566.26573234288	0
462	12542	566.36573234288	5840
462	12542	566.46573234288	0
462	12542	566.56573234288	0
462	12542	566.66573234288	0
462	12542	566.76573234288	0
462	12542	566.86573234288	0
462	12542	566.96573234288	0
462	12542	567.06573234288	0
462	12542	567.16573234288	0
462	12542	567.26573234288	0
462	12542	567.36573234288	0
462	12542	567.46573234288	0
462	12542	567.56573234288	0
462	12542	567.66573234288	0
462	12542	567.76573234288	0
462	12542	567.86573234288	0
462	12542	567.96573234288	0
462	12542	568.06573234288	0
462	12542	568.16573234288	0
462	12542	568.26573234288	0
462	12542	568.36573234288	0
462	12542	568.46573234288	0
462	12542	568.56573234288	0
462	12542	568.66573234288	0
462	12542	568.76573234288	0
462	12542	568.86573234288	0
462	12651	568.96573234288	5840
462	12651	569.06573234288	0
462	12651	569.16573234288	0
462	12651	569.26573234288	0
462	12651	569.36573234288	0
462	12651	569.46573234288	0
462	12651	569.56573234288	0
462	12651	569.66573234288	0
462	12651	569.76573234288	0
462	12651	569.86573234288	0
462	12651	569.96573234288	0
462	12651	570.06573234288	0
462	12651	570.16573234288	0
462	12651	570.26573234288	0
462	12651	570.36573234288	0
462	12651	570.46573234288	0
462	12651	570.56573234288	0
462	12651	570.66573234288	0
462	12651	570.76573234288	0
462	12651	570.86573234288	0
462	12651	570.96573234288	0
462	12651	571.06573234288	0
462	12651	571.16573234288	0
462	12651	571.26573234288	0
462	12651	571.36573234288	0
462	12651	571.46573234288	0
462	12651	571.56573234288	0
462	12651	571.66573234288	0
462	12651	571.76573234288	0
462	12651	571.86573234288	0
462	12651	571.96573234288	0
462	12651	572.06573234288	0
462	12651	572.16573234288	0
462	12651	572.26573234288	0
462	12651	572.36573234288	0
462	12848	572.46573234288	5840
462	12848	572.56573234288	0
462	12848	572.66573234288	0
462	12848	572.76573234288	0
462	12848	572.86573234288	0
462	12848	572.96573234288	0
462	12848	573.06573234288	0
462	12848	573.16573234288	0
462	12848	573.26573234288	0
462	12848	573.36573234288	0
462	12848	573.46573234288	0
462	12848	573.56573234288	0
462	12848	573.66573234288	0
462	12848	573.76573234288	0
462	12848	573.86573234288	0
462	12848	573.96573234288	0
462	12848	574.06573234288	0
462	12848	574.16573234288	0
462	12848	574.26573234288	0
462	12848	574.36573234288	0
462	12848	574.46573234288	0
462	12848	574.56573234288	0
462	12848	574.66573234288	0
462	12848	574.76573234288	0
462	12848	574.86573234288	0
462	12848	574.96573234288	0
462	12848	575.06573234288	0
462	12848	575.16573234288	0
462	12848	575.26573234288	0
462	12848	575.36573234288	0
462	12848	575.46573234288	0
462	12848	575.56573234288	0
462	12848	575.66573234288	0
462	12848	575.76573234288	0
462	12848	575.86573234288	0
462	12959	575.96573234288	5840
462	12959	576.06573234288	0
462	12959	576.16573234288	0
462	12959	576.26573234288	0
462	12959	576.36573234288	0
462	12959	576.46573234288	0
462	12959	576.56573234288	0
462	12959	576.66573234288	0
462	12959	576.76573234288	0
462	12959	576.86573234288	0
462	12959	576.96573234288	0
462	12959	577.06573234288	0
462	12959	577.16573234288	0
462	12959	577.26573234288	0
462	12959	577.36573234288	0
462	12959	577.46573234288	0
462	13074	577.56573234288	5840
462	13074	577.66573234288	0
462	13074	577.76573234288	0
462	13074	577.86573234288	0
462	13074	577.96573234288	0
462	13074	578.06573234288	0
462	13074	578.16573234288	0
462	13074	578.26573234288	0
462	13074	578.36573234288	0
462	13074	578.46573234288	0
462	13074	578.56573234288	0
462	13074	578.66573234288	0
462	13074	578.76573234288	0
462	13074	578.86573234288	0
462	13074	578.96573234288	0
462	13074	579.06573234288	0
462	13074	579.16573234288	0
462	13074	579.26573234288	0
462	13074	579.36573234288	0
462	13074	579.46573234288	0
462	13074	579.56573234288	0
462	13074	579.66573234288	0
462	13074	579.76573234288	0
462	13074	579.86573234288	0
462	13074	579.96573234288	0
462	13074	580.06573234288	0
462	13074	580.16573234288	0
462	13074	580.26573234288	0
462	13074	580.36573234288	0
462	13074	580.46573234288	0
462	13074	580.56573234288	0
462	13074	580.66573234288	0
462	13074	580.76573234288	0
462	13074	580.86573234288	0
462	13074	580.96573234288	0
462	13074	581.06573234288	0
462	13074	581.16573234288	0
462	13074	581.26573234288	0
462	13074	581.36573234288	0
462	13074	581.46573234288	0
462	13211	581.56573234288	5840
462	13211	581.66573234288	0
462	13211	581.76573234288	0
462	13211	581.86573234288	0
462	13211	581.96573234288	0
462	13211	582.06573234288	0
462	13211	582.16573234288	0
462	13211	582.26573234288	0
462	13211	582.36573234288	0
462	13211	582.46573234288	0
462	13211	582.56573234288	0
462	13211	582.66573234288	0
462	13211	582.76573234288	0
462	13211	582.86573234288	0
462	13211	582.96573234288	0
462	13211	583.06573234288	0
462	13211	583.16573234288	0
462	13211	583.26573234288	0
462	13211	583.36573234288	0
462	13211	583.46573234288	0
462	13211	583.56573234288	0
462	13389	583.66573234288	5840
462	13389	583.76573234288	0
462	13389	583.86573234288	0
462	13389	583.96573234288	0
462	13389	584.06573234288	0
462	13389	584.16573234288	0
462	13389	584.26573234288	0
462	13389	584.36573234288	0
462	13389	584.46573234288	0
462	13389	584.56573234288	0
462	13389	584.66573234288	0
462	13389	584.76573234288	0
462	13389	584.86573234288	0
462	13389	584.96573234288	0
462	13389	585.06573234288	0
462	13389	585.16573234288	0
462	13389	585.26573234288	0
462	13389	585.36573234288	0
462	13389	585.46573234288	0
462	13389	585.56573234288	0
462	13389	585.66573234288	0
462	13389	585.76573234288	0
462	13389	585.86573234288	0
462	13389	585.96573234288	0
462	13389	586.06573234288	0
462	13389	586.16573234288	0
462	13389	586.26573234288	0
462	13389	586.36573234288	0
462	13389	586.46573234288	0
462	13389	586.56573234288	0
462	13389	586.66573234288	0
462	13389	586.76573234288	0
462	13389	586.86573234288	0
462	13389	586.96573234288	0
462	13389	587.06573234288	0
462	13389	587.16573234288	0
462	13389	587.26573234288	0
462	13389	587.36573234288	0
462	13389	587.46573234288	0
462	13389	587.56573234288	0
462	13389	587.66573234288	0
462	13389	587.76573234288	0
462	13389	587.86573234288	0
462	13389	587.96573234288	0
462	13466	588.06573234288	5840
462	13466	588.16573234288	0
462	13466	588.26573234288	0
462	13466	588.36573234288	0
462	13466	588.46573234288	0
462	13466	588.56573234288	0
462	13466	588.66573234288	0
462	13466	588.76573234288	0
462	13466	588.86573234288	0
462	13466	588.96573234288	0
462	13466	589.06573234288	0
462	13466	589.16573234288	0
462	13466	589.26573234288	0
462	13466	589.36573234288	0
462	13466	589.46573234288	0
462	13466	589.56573234288	0
462	13466	589.66573234288	0
462	13466	589.76573234288	0
462	13466	589.86573234288	0
462	13466	589.96573234288	0
462	13466	590.06573234288	0
462	13466	590.16573234288	0
462	13466	590.26573234288	0
462	13466	590.36573234288	0
462	13544	590.46573234288	5840
462	13544	590.56573234288	0
462	13544	590.66573234288	0
462	13544	590.76573234288	0
462	13544	590.86573234288	0
462	13544	590.96573234288	0
462	13544	591.06573234288	0
462	13544	591.16573234288	0
462	13544	591.26573234288	0
462	13544	591.36573234288	0
462	13544	591.46573234288	0
462	13544	591.56573234288	0
462	13544	591.66573234288	0
462	13544	591.76573234288	0
462	13544	591.86573234288	0
462	13544	591.96573234288	0
462	13544	592.06573234288	0
462	13544	592.16573234288	0
462	13544	592.26573234288	0
462	13544	592.36573234288	0
462	13544	592.46573234288	0
462	13544	592.56573234288	0
462	13544	592.66573234288	0
462	13544	592.76573234288	0
462	13544	592.86573234288	0
462	13544	592.96573234288	0
462	13544	593.06573234288	0
462	13544	593.16573234288	0
462	13544	593.26573234288	0
462	13544	593.36573234288	0
462	13544	593.46573234288	0
462	13560	593.56573234288	5840
462	13560	593.66573234288	0
462	13560	593.76573234288	0
462	13560	593.86573234288	0
462	13560	593.96573234288	0
462	13560	594.06573234288	0
462	13560	594.16573234288	0
462	13560	594.26573234288	0
462	13560	594.36573234288	0
462	13560	594.46573234288	0
462	13560	594.56573234288	0
462	13560	594.66573234288	0
462	13560	594.76573234288	0
462	13560	594.86573234288	0
462	13560	594.96573234288	0
462	13560	595.06573234288	0
462	13560	595.16573234288	0
462	13560	595.26573234288	0
462	13560	595.36573234288	0
462	13560	595.46573234288	0
462	13560	595.56573234288	0
462	13560	595.66573234288	0
462	13560	595.76573234288	0
462	13560	595.86573234288	0
462	13560	595.96573234288	0
462	13560	596.06573234288	0
462	13560	596.16573234288	0
462	13560	596.26573234288	0
462	13560	596.36573234288	0
462	13560	596.46573234288	0
462	13560	596.56573234288	0
462	13560	596.66573234288	0
462	13560	596.76573234288	0
462	13560	596.86573234288	0
462	13560	596.96573234288	0
462	13560	597.06573234288	0
462	13560	597.16573234288	0
462	13560	597.26573234288	0
462	13560	597.36573234288	0
462	13560	597.46573234288	0
462	13560	597.56573234288	0
462	13560	597.66573234288	0
462	13560	597.76573234288	0
462	13560	597.86573234288	0
462	13560	597.96573234288	0
462	13560	598.06573234288	0
462	13560	598.16573234288	0
462	13560	598.26573234288	0
462	13560	598.36573234288	0
462	13560	598.46573234288	0
462	13560	598.56573234288	0
462	13560	598.66573234288	0
462	13560	598.76573234288	0
462	13560	598.86573234288	0
462	13560	598.96573234288	0
462	13560	599.06573234288	0
462	13560	599.16573234288	0
462	13560	599.26573234288	0
462	13560	599.36573234288	0
462	13560	599.46573234288	0
462	13560	599.56573234288	0
462	13560	599.66573234288	0
462	13560	599.76573234288	0
462	13560	599.86573234288	0
462	13560	599.96573234288	0
462	13560	600	0
463	12366	563.89457105049	4732846651543.1
464	12366	563.89457105049	0
465	12366	563.89457105049	0
466	12366	563.89457105049	0

