version 3
run General-1-20260424-07:12:02-16548
attr configname General
attr datetime 20260424-07:12:02
attr datetimef 20260424-071202
attr experiment General
attr inifile C:/OmnetDos/test_omnet/simulations/omnetpp.ini
attr iterationvars "$pathlosstype=\"Multimodel\""
attr iterationvarsd pathlosstype=Multimodel
attr iterationvarsf pathlosstype=Multimodel-
attr measurement "$pathlosstype=\"Multimodel\""
attr network wireless3.simulations.Wireless3
attr processid 16548
attr repetition 0
attr replication #0
attr resultdir results
attr runnumber 1
attr seedset 1
itervar pathlosstype "\"Multimodel\""
config image-path C:/OmnetDos/inet4.4/images;C:/OmnetDos/flora-1.1.0/images
config network wireless3.simulations.Wireless3
config sim-time-limit 600s
config simtime-resolution -11
config *.gateway.mobility.typename StationaryMobility
config *.gateway.mobility.initialX 250m
config *.gateway.mobility.initialY 150m
config *.gateway.mobility.initialZ 0m
config *.gateway.mobility.initFromDisplayString false
config *.networkServer.mobility.typename StationaryMobility
config *.networkServer.mobility.initialX 400m
config *.networkServer.mobility.initialY 50m
config *.networkServer.mobility.initialZ 0m
config *.networkServer.mobility.initFromDisplayString false
config *.host[0].mobility.initialX 1000.0m
config *.host[0].mobility.initialY 7.27m
config *.host[0].mobility.initialZ 0m
config *.host[1].mobility.initialX 1069.01m
config *.host[1].mobility.initialY 54.77m
config *.host[1].mobility.initialZ 0m
config *.host[2].mobility.initialX 1079.15m
config *.host[2].mobility.initialY 110.1m
config *.host[2].mobility.initialZ 0m
config *.host[3].mobility.initialX 1011.05m
config *.host[3].mobility.initialY 14.87m
config *.host[3].mobility.initialZ 0m
config *.host[4].mobility.initialX 1020.87m
config *.host[4].mobility.initialY 21.63m
config *.host[4].mobility.initialZ 0m
config *.host[5].mobility.initialX 1027.2m
config *.host[5].mobility.initialY 25.99m
config *.host[5].mobility.initialZ 0m
config *.host[6].mobility.initialX 1037.15m
config *.host[6].mobility.initialY 32.84m
config *.host[6].mobility.initialZ 0m
config *.host[7].mobility.initialX 1054.81m
config *.host[7].mobility.initialY 45.0m
config *.host[7].mobility.initialZ 0m
config *.host[8].mobility.initialX 1072.72m
config *.host[8].mobility.initialY 75.06m
config *.host[8].mobility.initialZ 0m
config *.host[9].mobility.initialX 1077.68m
config *.host[9].mobility.initialY 102.12m
config *.host[9].mobility.initialZ 0m
config *.host[10].mobility.initialX 1190.44m
config *.host[10].mobility.initialY 54.77m
config *.host[10].mobility.initialZ 0m
config *.host[11].mobility.initialX 1235.93m
config *.host[11].mobility.initialY 0.0m
config *.host[11].mobility.initialZ 0m
config *.host[12].mobility.initialX 1094.3m
config *.host[12].mobility.initialY 72.49m
config *.host[12].mobility.initialZ 0m
config *.host[13].mobility.initialX 1113.87m
config *.host[13].mobility.initialY 71.91m
config *.host[13].mobility.initialZ 0m
config *.host[14].mobility.initialX 1141.65m
config *.host[14].mobility.initialY 65.69m
config *.host[14].mobility.initialZ 0m
config *.host[15].mobility.initialX 1150.81m
config *.host[15].mobility.initialY 63.64m
config *.host[15].mobility.initialZ 0m
config *.host[16].mobility.initialX 1165.59m
config *.host[16].mobility.initialY 60.33m
config *.host[16].mobility.initialZ 0m
config *.host[17].mobility.initialX 1194.43m
config *.host[17].mobility.initialY 49.97m
config *.host[17].mobility.initialZ 0m
config *.host[18].mobility.initialX 1208.17m
config *.host[18].mobility.initialY 33.43m
config *.host[18].mobility.initialZ 0m
config *.host[19].mobility.initialX 1215.18m
config *.host[19].mobility.initialY 24.99m
config *.host[19].mobility.initialZ 0m
config *.host[20].mobility.initialX 1228.89m
config *.host[20].mobility.initialY 8.47m
config *.host[20].mobility.initialZ 0m
config *.host[21].mobility.initialX 1098.41m
config *.host[21].mobility.initialY 75.37m
config *.host[21].mobility.initialZ 0m
config *.host[22].mobility.initialX 1137.76m
config *.host[22].mobility.initialY 102.53m
config *.host[22].mobility.initialZ 0m
config *.host[23].mobility.initialX 1157.26m
config *.host[23].mobility.initialY 116.6m
config *.host[23].mobility.initialZ 0m
config *.host[24].mobility.initialX 1146.06m
config *.host[24].mobility.initialY 171.72m
config *.host[24].mobility.initialZ 0m
config *.host[25].mobility.initialX 1116.97m
config *.host[25].mobility.initialY 88.17m
config *.host[25].mobility.initialZ 0m
config *.host[26].mobility.initialX 1151.28m
config *.host[26].mobility.initialY 146.03m
config *.host[26].mobility.initialZ 0m
config *.numHost 27
config *.width 1235.93m
config *.height 1007.27m
config *.host[*].numApps 1
config *.host[*].app[0].typename SimpleLoRaApp
config *.host[*].app[0].dataSize 10B
config *.host[*].app[0].initialLoRaTP 14dBm
config *.host[*].app[0].initialLoRaCF 915MHz
config *.host[*].app[0].initialLoRaBW 125kHz
config *.host[*].app[0].initialLoRaSF 11
config *.host[*].app[0].initialLoRaCR 4
config *.host[*].app[0].initialUseHeader true
config *.host[*].app[0].evaluateADRinNode false
config *.host[*].app[0].destNodeIds "\"-1\""
config *.host[*].app[0].nextHopId -1
config *.host[0].app[0].destNodeIds "\"3\""
config *.host[0].app[0].srcNodeId 0
config *.host[0].app[0].nextHopId -1
config *.host[0].app[0].timeToFirstPacket exponential(5s)
config *.host[0].app[0].timeToNextPacket exponential(10s)
config *.host[1].app[0].destNodeIds "\"7 8\""
config *.host[1].app[0].srcNodeId 1
config *.host[1].app[0].nextHopId 7
config *.host[1].app[0].timeToFirstPacket exponential(5s)
config *.host[1].app[0].timeToNextPacket exponential(10s)
config *.host[2].app[0].destNodeIds "\"9\""
config *.host[2].app[0].srcNodeId 2
config *.host[2].app[0].nextHopId 9
config *.host[2].app[0].timeToFirstPacket exponential(5s)
config *.host[2].app[0].timeToNextPacket exponential(10s)
config *.host[3].app[0].destNodeIds "\"0 5\""
config *.host[3].app[0].srcNodeId 3
config *.host[3].app[0].nextHopId -1
config *.host[3].app[0].timeToFirstPacket exponential(5s)
config *.host[3].app[0].timeToNextPacket exponential(10s)
config *.host[4].app[0].destNodeIds "\"5 6\""
config *.host[4].app[0].srcNodeId 4
config *.host[4].app[0].nextHopId 5
config *.host[4].app[0].timeToFirstPacket exponential(5s)
config *.host[4].app[0].timeToNextPacket exponential(10s)
config *.host[5].app[0].destNodeIds "\"4 3\""
config *.host[5].app[0].srcNodeId 5
config *.host[5].app[0].nextHopId 3
config *.host[5].app[0].timeToFirstPacket exponential(5s)
config *.host[5].app[0].timeToNextPacket exponential(10s)
config *.host[6].app[0].destNodeIds "\"4 7\""
config *.host[6].app[0].srcNodeId 6
config *.host[6].app[0].nextHopId 4
config *.host[6].app[0].timeToFirstPacket exponential(5s)
config *.host[6].app[0].timeToNextPacket exponential(10s)
config *.host[7].app[0].destNodeIds "\"1 6\""
config *.host[7].app[0].srcNodeId 7
config *.host[7].app[0].nextHopId 6
config *.host[7].app[0].timeToFirstPacket exponential(5s)
config *.host[7].app[0].timeToNextPacket exponential(10s)
config *.host[8].app[0].destNodeIds "\"1 9\""
config *.host[8].app[0].srcNodeId 8
config *.host[8].app[0].nextHopId 1
config *.host[8].app[0].timeToFirstPacket exponential(5s)
config *.host[8].app[0].timeToNextPacket exponential(10s)
config *.host[9].app[0].destNodeIds "\"2 8\""
config *.host[9].app[0].srcNodeId 9
config *.host[9].app[0].nextHopId 8
config *.host[9].app[0].timeToFirstPacket exponential(5s)
config *.host[9].app[0].timeToNextPacket exponential(10s)
config *.host[10].app[0].destNodeIds "\"16 17\""
config *.host[10].app[0].srcNodeId 10
config *.host[10].app[0].nextHopId 16
config *.host[10].app[0].timeToFirstPacket exponential(5s)
config *.host[10].app[0].timeToNextPacket exponential(10s)
config *.host[11].app[0].destNodeIds "\"20\""
config *.host[11].app[0].srcNodeId 11
config *.host[11].app[0].nextHopId 20
config *.host[11].app[0].timeToFirstPacket exponential(5s)
config *.host[11].app[0].timeToNextPacket exponential(10s)
config *.host[12].app[0].destNodeIds "\"21 25\""
config *.host[12].app[0].srcNodeId 12
config *.host[12].app[0].nextHopId -1
config *.host[12].app[0].timeToFirstPacket exponential(5s)
config *.host[12].app[0].timeToNextPacket exponential(10s)
config *.host[13].app[0].destNodeIds "\"14 21\""
config *.host[13].app[0].srcNodeId 13
config *.host[13].app[0].nextHopId 21
config *.host[13].app[0].timeToFirstPacket exponential(5s)
config *.host[13].app[0].timeToNextPacket exponential(10s)
config *.host[14].app[0].destNodeIds "\"15 13\""
config *.host[14].app[0].srcNodeId 14
config *.host[14].app[0].nextHopId 13
config *.host[14].app[0].timeToFirstPacket exponential(5s)
config *.host[14].app[0].timeToNextPacket exponential(10s)
config *.host[15].app[0].destNodeIds "\"16 14\""
config *.host[15].app[0].srcNodeId 15
config *.host[15].app[0].nextHopId 14
config *.host[15].app[0].timeToFirstPacket exponential(5s)
config *.host[15].app[0].timeToNextPacket exponential(10s)
config *.host[16].app[0].destNodeIds "\"15 10\""
config *.host[16].app[0].srcNodeId 16
config *.host[16].app[0].nextHopId 15
config *.host[16].app[0].timeToFirstPacket exponential(5s)
config *.host[16].app[0].timeToNextPacket exponential(10s)
config *.host[17].app[0].destNodeIds "\"10 18\""
config *.host[17].app[0].srcNodeId 17
config *.host[17].app[0].nextHopId 10
config *.host[17].app[0].timeToFirstPacket exponential(5s)
config *.host[17].app[0].timeToNextPacket exponential(10s)
config *.host[18].app[0].destNodeIds "\"19 17\""
config *.host[18].app[0].srcNodeId 18
config *.host[18].app[0].nextHopId 17
config *.host[18].app[0].timeToFirstPacket exponential(5s)
config *.host[18].app[0].timeToNextPacket exponential(10s)
config *.host[19].app[0].destNodeIds "\"18 20\""
config *.host[19].app[0].srcNodeId 19
config *.host[19].app[0].nextHopId 18
config *.host[19].app[0].timeToFirstPacket exponential(5s)
config *.host[19].app[0].timeToNextPacket exponential(10s)
config *.host[20].app[0].destNodeIds "\"19 11\""
config *.host[20].app[0].srcNodeId 20
config *.host[20].app[0].nextHopId 19
config *.host[20].app[0].timeToFirstPacket exponential(5s)
config *.host[20].app[0].timeToNextPacket exponential(10s)
config *.host[21].app[0].destNodeIds "\"13 12\""
config *.host[21].app[0].srcNodeId 21
config *.host[21].app[0].nextHopId 12
config *.host[21].app[0].timeToFirstPacket exponential(5s)
config *.host[21].app[0].timeToNextPacket exponential(10s)
config *.host[22].app[0].destNodeIds "\"25 23\""
config *.host[22].app[0].srcNodeId 22
config *.host[22].app[0].nextHopId 25
config *.host[22].app[0].timeToFirstPacket exponential(5s)
config *.host[22].app[0].timeToNextPacket exponential(10s)
config *.host[23].app[0].destNodeIds "\"22 26\""
config *.host[23].app[0].srcNodeId 23
config *.host[23].app[0].nextHopId 22
config *.host[23].app[0].timeToFirstPacket exponential(5s)
config *.host[23].app[0].timeToNextPacket exponential(10s)
config *.host[24].app[0].destNodeIds "\"26\""
config *.host[24].app[0].srcNodeId 24
config *.host[24].app[0].nextHopId 26
config *.host[24].app[0].timeToFirstPacket exponential(5s)
config *.host[24].app[0].timeToNextPacket exponential(10s)
config *.host[25].app[0].destNodeIds "\"12 22\""
config *.host[25].app[0].srcNodeId 25
config *.host[25].app[0].nextHopId 12
config *.host[25].app[0].timeToFirstPacket exponential(5s)
config *.host[25].app[0].timeToNextPacket exponential(10s)
config *.host[26].app[0].destNodeIds "\"23 24\""
config *.host[26].app[0].srcNodeId 26
config *.host[26].app[0].nextHopId 23
config *.host[26].app[0].timeToFirstPacket exponential(5s)
config *.host[26].app[0].timeToNextPacket exponential(10s)
config *.host[*].mobility.typename StationaryMobility
config *.host[*].mobility.initFromDisplayString false
config *.host[*].gatewayX 250
config *.host[*].gatewayY 150
config *.host[*].maxGatewayDistance 2000
config *.host[*].app[0].numberOfPacketsToSend 0
config *.radioMedium.typename LoRaMedium
config *.radioMedium.pathLoss.typename Multimodel
config *.radioMedium.maxTransmissionDuration 100s
config *.radioMedium.mediumLimitCache.maxTransmissionDuration 100s
config *.radioMedium.backgroundNoise.typename IsotropicScalarBackgroundNoise
config *.radioMedium.backgroundNoise.power -117dBm
config *.radioMedium.pathLoss.width_tunnel 4
config *.radioMedium.pathLoss.height_tunnel 4
config *.radioMedium.pathLoss.gain_tx 1.5849
config *.radioMedium.pathLoss.gain_tx_tr 0.2
config *.radioMedium.pathLoss.power_tx 2.5
config *.radioMedium.pathLoss.p_tx_radio 0.025119W
config *.radioMedium.pathLoss.frequency 915e6
config *.host[*].LoRaNic.queue.typename DropTailQueue
config *.host[*].LoRaNic.queue.packetCapacity -1
config *.host[*].LoRaNic.radio.receiver.typename LoRaReceiver
config *.host[*].LoRaNic.radio.receiver.energyDetection -117dBm
config *.host[*].LoRaNic.radio.receiver.sensitivity -117dBm
config *.gateway.numUdpApps 1
config *.gateway.packetForwarder.destAddresses "\"networkServer\""
config *.gateway.packetForwarder.localPort 2000
config *.gateway.packetForwarder.destPort 1000
config *.gateway.packetForwarder.indexNumber 0
config *.networkServer.numApps 1
config *.networkServer.app[0].typename NetworkServerApp
config *.networkServer.app[0].destAddresses "\"gateway\""
config *.networkServer.app[0].destPort 2000
config *.networkServer.app[0].localPort 1000
config *.networkServer.app[0].adrMethod "\"avg\""
config **.energySourceModule "\"\""
config **.energyStorageModule "\"\""
config **.energyConsumerModule "\"\""
config *.visualizer.mediumVisualizer.displaySignals true
config **.host[*].displayString "\"i=misc/sensor\""
config **.gateway.displayString "\"i=misc/antennatower\""
config **.networkServer.displayString "\"i=misc/server\""
config *.visualizer.physicalLinkVisualizer.displayLinks true
config *.visualizer.physicalLinkVisualizer.packetFilter "\"DataFrame*\""
config *.visualizer.dataLinkVisualizer.displayLinks true
config *.radioMedium.*.result-recording-modes default,+vector
config *.host[*].LoRaNic.radio.*.result-recording-modes default,+vector
config **.snir:vector.result-recording-modes +vector

scalar Pathloss "from (1020.870000, 21.630000, 0) to (1027.200000, 25.990000, 0) unit=none" 1
scalar "Reception power" "from (1020.870000, 21.630000, 0) to (1027.200000, 25.990000, 0) unit=dBm" 14.00002345928
scalar Pathloss "from (1020.870000, 21.630000, 0) to (1011.050000, 14.870000, 0) unit=none" 1
scalar "Reception power" "from (1020.870000, 21.630000, 0) to (1011.050000, 14.870000, 0) unit=dBm" 14.00002345928
scalar Pathloss "from (1020.870000, 21.630000, 0) to (1037.150000, 32.840000, 0) unit=none" 0.37601077335536
scalar "Reception power" "from (1020.870000, 21.630000, 0) to (1037.150000, 32.840000, 0) unit=dBm" 9.7520263431773
scalar Pathloss "from (1020.870000, 21.630000, 0) to (1000.000000, 7.270000, 0) unit=none" 0.11755645776152
scalar "Reception power" "from (1020.870000, 21.630000, 0) to (1000.000000, 7.270000, 0) unit=dBm" 4.7024883726353
scalar Pathloss "from (1020.870000, 21.630000, 0) to (1054.810000, 45.000000, 0) unit=none" 0.022337269405308
scalar "Reception power" "from (1020.870000, 21.630000, 0) to (1054.810000, 45.000000, 0) unit=dBm" -2.509675718944
scalar Pathloss "from (1020.870000, 21.630000, 0) to (1069.010000, 54.770000, 0) unit=none" 0.012790151692462
scalar "Reception power" "from (1020.870000, 21.630000, 0) to (1069.010000, 54.770000, 0) unit=dBm" -4.9312195878739
scalar Pathloss "from (1020.870000, 21.630000, 0) to (1072.720000, 75.060000, 0) unit=none" 0.014650744937604
scalar "Reception power" "from (1020.870000, 21.630000, 0) to (1072.720000, 75.060000, 0) unit=dBm" -4.3413794651053
scalar Pathloss "from (1020.870000, 21.630000, 0) to (1094.300000, 72.490000, 0) unit=none" 0.093461829672908
scalar "Reception power" "from (1020.870000, 21.630000, 0) to (1094.300000, 72.490000, 0) unit=dBm" 3.7063662474625
scalar Pathloss "from (1020.870000, 21.630000, 0) to (1098.410000, 75.370000, 0) unit=none" 0.11485871099419
scalar "Reception power" "from (1020.870000, 21.630000, 0) to (1098.410000, 75.370000, 0) unit=dBm" 4.601662840158
scalar Pathloss "from (1020.870000, 21.630000, 0) to (1077.680000, 102.120000, 0) unit=none" 0.11880952989701
scalar "Reception power" "from (1020.870000, 21.630000, 0) to (1077.680000, 102.120000, 0) unit=dBm" 4.7485362340556
scalar Pathloss "from (1020.870000, 21.630000, 0) to (1113.870000, 71.910000, 0) unit=none" 0.10148903660873
scalar "Reception power" "from (1020.870000, 21.630000, 0) to (1113.870000, 71.910000, 0) unit=dBm" 4.0642147588662
scalar Pathloss "from (1020.870000, 21.630000, 0) to (1079.150000, 110.100000, 0) unit=none" 0.10072801270611
scalar "Reception power" "from (1020.870000, 21.630000, 0) to (1079.150000, 110.100000, 0) unit=dBm" 4.0315261163416
scalar Pathloss "from (1020.870000, 21.630000, 0) to (1116.970000, 88.170000, 0) unit=none" 0.077062334109804
scalar "Reception power" "from (1020.870000, 21.630000, 0) to (1116.970000, 88.170000, 0) unit=dBm" 2.868445049737
scalar Pathloss "from (1020.870000, 21.630000, 0) to (1141.650000, 65.690000, 0) unit=none" 0.12326590922498
scalar "Reception power" "from (1020.870000, 21.630000, 0) to (1141.650000, 65.690000, 0) unit=dBm" 4.9084532939632
scalar Pathloss "from (1020.870000, 21.630000, 0) to (1150.810000, 63.640000, 0) unit=none" 0.17133006754923
scalar "Reception power" "from (1020.870000, 21.630000, 0) to (1150.810000, 63.640000, 0) unit=dBm" 6.3383593203898
scalar Pathloss "from (1020.870000, 21.630000, 0) to (1137.760000, 102.530000, 0) unit=none" 0.1791942933915
scalar "Reception power" "from (1020.870000, 21.630000, 0) to (1137.760000, 102.530000, 0) unit=dBm" 6.5332652096365
scalar Pathloss "from (1020.870000, 21.630000, 0) to (1165.590000, 60.330000, 0) unit=none" 0.13994814843752
scalar "Reception power" "from (1020.870000, 21.630000, 0) to (1165.590000, 60.330000, 0) unit=dBm" 5.4596950290173
scalar Pathloss "from (1020.870000, 21.630000, 0) to (1157.260000, 116.600000, 0) unit=none" 0.021334802900096
scalar "Reception power" "from (1020.870000, 21.630000, 0) to (1157.260000, 116.600000, 0) unit=dBm" -2.709090190537
scalar Pathloss "from (1020.870000, 21.630000, 0) to (1190.440000, 54.770000, 0) unit=none" 0.0055335718000541
scalar "Reception power" "from (1020.870000, 21.630000, 0) to (1190.440000, 54.770000, 0) unit=dBm" -8.5699210462827
scalar Pathloss "from (1020.870000, 21.630000, 0) to (1194.430000, 49.970000, 0) unit=none" 0.0025646234263314
scalar "Reception power" "from (1020.870000, 21.630000, 0) to (1194.430000, 49.970000, 0) unit=dBm" -11.90974049097
scalar Pathloss "from (1020.870000, 21.630000, 0) to (1151.280000, 146.030000, 0) unit=none" 0.00072532987914878
scalar "Reception power" "from (1020.870000, 21.630000, 0) to (1151.280000, 146.030000, 0) unit=dBm" -17.39462085969
scalar Pathloss "from (1020.870000, 21.630000, 0) to (1208.170000, 33.430000, 0) unit=none" 4.6300801345653e-05
scalar "Reception power" "from (1020.870000, 21.630000, 0) to (1208.170000, 33.430000, 0) unit=dBm" -29.344091464886
scalar Pathloss "from (1020.870000, 21.630000, 0) to (1215.180000, 24.990000, 0) unit=none" 2.9516855734756e-06
scalar "Reception power" "from (1020.870000, 21.630000, 0) to (1215.180000, 24.990000, 0) unit=dBm" -41.299275614147
scalar Pathloss "from (1020.870000, 21.630000, 0) to (1146.060000, 171.720000, 0) unit=none" 2.6271153792049e-06
scalar "Reception power" "from (1020.870000, 21.630000, 0) to (1146.060000, 171.720000, 0) unit=dBm" -41.805185072656
scalar Pathloss "from (1020.870000, 21.630000, 0) to (1228.890000, 8.470000, 0) unit=none" 0.00057850083309873
scalar "Reception power" "from (1020.870000, 21.630000, 0) to (1228.890000, 8.470000, 0) unit=dBm" -18.376936653566
scalar Pathloss "from (1020.870000, 21.630000, 0) to (1235.930000, 0.000000, 0) unit=none" 0.0041603273346789
scalar "Reception power" "from (1020.870000, 21.630000, 0) to (1235.930000, 0.000000, 0) unit=dBm" -9.8087015179817
scalar Pathloss "from (1020.870000, 21.630000, 0) to (250.000000, 150.000000, 0) unit=none" 0.00081238920383556
scalar "Reception power" "from (1020.870000, 21.630000, 0) to (250.000000, 150.000000, 0) unit=dBm" -16.902335108137
scalar Pathloss "from (1077.680000, 102.120000, 0) to (1079.150000, 110.100000, 0) unit=none" 1
scalar "Reception power" "from (1077.680000, 102.120000, 0) to (1079.150000, 110.100000, 0) unit=dBm" 14.00002345928
scalar Pathloss "from (1077.680000, 102.120000, 0) to (1072.720000, 75.060000, 0) unit=none" 0.073340919528463
scalar "Reception power" "from (1077.680000, 102.120000, 0) to (1072.720000, 75.060000, 0) unit=dBm" 2.6534869665254
scalar Pathloss "from (1077.680000, 102.120000, 0) to (1098.410000, 75.370000, 0) unit=none" 0.025324341270439
scalar "Reception power" "from (1077.680000, 102.120000, 0) to (1098.410000, 75.370000, 0) unit=dBm" -1.9645949663732
scalar Pathloss "from (1077.680000, 102.120000, 0) to (1094.300000, 72.490000, 0) unit=none" 0.025003228673306
scalar "Reception power" "from (1077.680000, 102.120000, 0) to (1094.300000, 72.490000, 0) unit=dBm" -2.0200156122146
scalar Pathloss "from (1077.680000, 102.120000, 0) to (1116.970000, 88.170000, 0) unit=none" 0.022685875894693
scalar "Reception power" "from (1077.680000, 102.120000, 0) to (1116.970000, 88.170000, 0) unit=dBm" -2.4424210216988
scalar Pathloss "from (1077.680000, 102.120000, 0) to (1113.870000, 71.910000, 0) unit=none" 0.025499043958493
scalar "Reception power" "from (1077.680000, 102.120000, 0) to (1113.870000, 71.910000, 0) unit=dBm" -1.9347375643553
scalar Pathloss "from (1077.680000, 102.120000, 0) to (1069.010000, 54.770000, 0) unit=none" 0.025397642310533
scalar "Reception power" "from (1077.680000, 102.120000, 0) to (1069.010000, 54.770000, 0) unit=dBm" -1.9520425158794
scalar Pathloss "from (1077.680000, 102.120000, 0) to (1137.760000, 102.530000, 0) unit=none" 0.010487078465277
scalar "Reception power" "from (1077.680000, 102.120000, 0) to (1137.760000, 102.530000, 0) unit=dBm" -5.7934313662463
scalar Pathloss "from (1077.680000, 102.120000, 0) to (1054.810000, 45.000000, 0) unit=none" 0.0087747328719291
scalar "Reception power" "from (1077.680000, 102.120000, 0) to (1054.810000, 45.000000, 0) unit=dBm" -6.5676374990432
scalar Pathloss "from (1077.680000, 102.120000, 0) to (1141.650000, 65.690000, 0) unit=none" 0.012678717317181
scalar "Reception power" "from (1077.680000, 102.120000, 0) to (1141.650000, 65.690000, 0) unit=dBm" -4.9692233508846
scalar Pathloss "from (1077.680000, 102.120000, 0) to (1037.150000, 32.840000, 0) unit=none" 0.037456954145769
scalar "Reception power" "from (1077.680000, 102.120000, 0) to (1037.150000, 32.840000, 0) unit=dBm" -0.2646519473988
scalar Pathloss "from (1077.680000, 102.120000, 0) to (1157.260000, 116.600000, 0) unit=none" 0.040832704812545
scalar "Reception power" "from (1077.680000, 102.120000, 0) to (1157.260000, 116.600000, 0) unit=dBm" 0.11010495046538
scalar Pathloss "from (1077.680000, 102.120000, 0) to (1150.810000, 63.640000, 0) unit=none" 0.051100441510152
scalar "Reception power" "from (1077.680000, 102.120000, 0) to (1150.810000, 63.640000, 0) unit=dBm" 1.0842699840307
scalar Pathloss "from (1077.680000, 102.120000, 0) to (1151.280000, 146.030000, 0) unit=none" 0.07082229126136
scalar "Reception power" "from (1077.680000, 102.120000, 0) to (1151.280000, 146.030000, 0) unit=dBm" 2.5017231898643
scalar Pathloss "from (1077.680000, 102.120000, 0) to (1027.200000, 25.990000, 0) unit=none" 0.10398859025293
scalar "Reception power" "from (1077.680000, 102.120000, 0) to (1027.200000, 25.990000, 0) unit=dBm" 4.169880365534
scalar Pathloss "from (1077.680000, 102.120000, 0) to (1165.590000, 60.330000, 0) unit=none" 0.11901671723348
scalar "Reception power" "from (1077.680000, 102.120000, 0) to (1165.590000, 60.330000, 0) unit=dBm" 4.7561031313848
scalar Pathloss "from (1077.680000, 102.120000, 0) to (1146.060000, 171.720000, 0) unit=none" 0.11905517513519
scalar "Reception power" "from (1077.680000, 102.120000, 0) to (1146.060000, 171.720000, 0) unit=dBm" 4.7575062415526
scalar Pathloss "from (1077.680000, 102.120000, 0) to (1020.870000, 21.630000, 0) unit=none" 0.11880952989701
scalar "Reception power" "from (1077.680000, 102.120000, 0) to (1020.870000, 21.630000, 0) unit=dBm" 4.7485362340556
scalar Pathloss "from (1077.680000, 102.120000, 0) to (1011.050000, 14.870000, 0) unit=none" 0.087859035510852
scalar "Reception power" "from (1077.680000, 102.120000, 0) to (1011.050000, 14.870000, 0) unit=dBm" 3.4378877733376
scalar Pathloss "from (1077.680000, 102.120000, 0) to (1190.440000, 54.770000, 0) unit=none" 0.088720502639984
scalar "Reception power" "from (1077.680000, 102.120000, 0) to (1190.440000, 54.770000, 0) unit=dBm" 3.4802633954193
scalar Pathloss "from (1077.680000, 102.120000, 0) to (1000.000000, 7.270000, 0) unit=none" 0.089927275140117
scalar "Reception power" "from (1077.680000, 102.120000, 0) to (1000.000000, 7.270000, 0) unit=dBm" 3.5389378011157
scalar Pathloss "from (1077.680000, 102.120000, 0) to (1194.430000, 49.970000, 0) unit=none" 0.11867909753262
scalar "Reception power" "from (1077.680000, 102.120000, 0) to (1194.430000, 49.970000, 0) unit=dBm" 4.7437658109471
scalar Pathloss "from (1077.680000, 102.120000, 0) to (1208.170000, 33.430000, 0) unit=none" 0.1570618490949
scalar "Reception power" "from (1077.680000, 102.120000, 0) to (1208.170000, 33.430000, 0) unit=dBm" 5.960730520392
scalar Pathloss "from (1077.680000, 102.120000, 0) to (1215.180000, 24.990000, 0) unit=none" 0.072546855013292
scalar "Reception power" "from (1077.680000, 102.120000, 0) to (1215.180000, 24.990000, 0) unit=dBm" 2.6062093596184
scalar Pathloss "from (1077.680000, 102.120000, 0) to (1228.890000, 8.470000, 0) unit=none" 0.0014762843450393
scalar "Reception power" "from (1077.680000, 102.120000, 0) to (1228.890000, 8.470000, 0) unit=dBm" -14.308276396825
scalar Pathloss "from (1077.680000, 102.120000, 0) to (1235.930000, 0.000000, 0) unit=none" 3.4549420125724e-05
scalar "Reception power" "from (1077.680000, 102.120000, 0) to (1235.930000, 0.000000, 0) unit=dBm" -30.615568914591
scalar Pathloss "from (1077.680000, 102.120000, 0) to (250.000000, 150.000000, 0) unit=none" 9.6557566076951e-05
scalar "Reception power" "from (1077.680000, 102.120000, 0) to (250.000000, 150.000000, 0) unit=dBm" -26.1521134409
scalar Pathloss "from (1146.060000, 171.720000, 0) to (1151.280000, 146.030000, 0) unit=none" 0.096971891577616
scalar "Reception power" "from (1146.060000, 171.720000, 0) to (1151.280000, 146.030000, 0) unit=dBm" 3.866482131655
scalar Pathloss "from (1146.060000, 171.720000, 0) to (1157.260000, 116.600000, 0) unit=none" 0.016258393583685
scalar "Reception power" "from (1146.060000, 171.720000, 0) to (1157.260000, 116.600000, 0) unit=dBm" -3.8892002131378
scalar Pathloss "from (1146.060000, 171.720000, 0) to (1137.760000, 102.530000, 0) unit=none" 0.007038531674779
scalar "Reception power" "from (1146.060000, 171.720000, 0) to (1137.760000, 102.530000, 0) unit=dBm" -7.5251558470992
scalar Pathloss "from (1146.060000, 171.720000, 0) to (1116.970000, 88.170000, 0) unit=none" 0.088438612154893
scalar "Reception power" "from (1146.060000, 171.720000, 0) to (1116.970000, 88.170000, 0) unit=dBm" 3.46644264613
scalar Pathloss "from (1146.060000, 171.720000, 0) to (1079.150000, 110.100000, 0) unit=none" 0.10216064755956
scalar "Reception power" "from (1146.060000, 171.720000, 0) to (1079.150000, 110.100000, 0) unit=dBm" 4.0928598302836
scalar Pathloss "from (1146.060000, 171.720000, 0) to (1077.680000, 102.120000, 0) unit=none" 0.11905517513519
scalar "Reception power" "from (1146.060000, 171.720000, 0) to (1077.680000, 102.120000, 0) unit=dBm" 4.7575062415526
scalar Pathloss "from (1146.060000, 171.720000, 0) to (1113.870000, 71.910000, 0) unit=none" 0.10439553525473
scalar "Reception power" "from (1146.060000, 171.720000, 0) to (1113.870000, 71.910000, 0) unit=dBm" 4.1868427126378
scalar Pathloss "from (1146.060000, 171.720000, 0) to (1141.650000, 65.690000, 0) unit=none" 0.10009934514848
scalar "Reception power" "from (1146.060000, 171.720000, 0) to (1141.650000, 65.690000, 0) unit=dBm" 4.004335822551
scalar Pathloss "from (1146.060000, 171.720000, 0) to (1098.410000, 75.370000, 0) unit=none" 0.095346098604179
scalar "Reception power" "from (1146.060000, 171.720000, 0) to (1098.410000, 75.370000, 0) unit=dBm" 3.7930527310189
scalar Pathloss "from (1146.060000, 171.720000, 0) to (1150.810000, 63.640000, 0) unit=none" 0.092978783986945
scalar "Reception power" "from (1146.060000, 171.720000, 0) to (1150.810000, 63.640000, 0) unit=dBm" 3.6838620793836
scalar Pathloss "from (1146.060000, 171.720000, 0) to (1094.300000, 72.490000, 0) unit=none" 0.082156366822407
scalar "Reception power" "from (1146.060000, 171.720000, 0) to (1094.300000, 72.490000, 0) unit=dBm" 3.1464357126074
scalar Pathloss "from (1146.060000, 171.720000, 0) to (1165.590000, 60.330000, 0) unit=none" 0.079797456587802
scalar "Reception power" "from (1146.060000, 171.720000, 0) to (1165.590000, 60.330000, 0) unit=dBm" 3.0199139507961
scalar Pathloss "from (1146.060000, 171.720000, 0) to (1072.720000, 75.060000, 0) unit=none" 0.085244638403164
scalar "Reception power" "from (1146.060000, 171.720000, 0) to (1072.720000, 75.060000, 0) unit=dBm" 3.3066941881072
scalar Pathloss "from (1146.060000, 171.720000, 0) to (1190.440000, 54.770000, 0) unit=none" 0.10188794417064
scalar "Reception power" "from (1146.060000, 171.720000, 0) to (1190.440000, 54.770000, 0) unit=dBm" 4.0812514534248
scalar Pathloss "from (1146.060000, 171.720000, 0) to (1194.430000, 49.970000, 0) unit=none" 0.13969834323677
scalar "Reception power" "from (1146.060000, 171.720000, 0) to (1194.430000, 49.970000, 0) unit=dBm" 5.4519360152392
scalar Pathloss "from (1146.060000, 171.720000, 0) to (1069.010000, 54.770000, 0) unit=none" 0.17995873371469
scalar "Reception power" "from (1146.060000, 171.720000, 0) to (1069.010000, 54.770000, 0) unit=dBm" 6.5517527450541
scalar Pathloss "from (1146.060000, 171.720000, 0) to (1208.170000, 33.430000, 0) unit=none" 0.12501484613189
scalar "Reception power" "from (1146.060000, 171.720000, 0) to (1208.170000, 33.430000, 0) unit=dBm" 4.9696393661841
scalar Pathloss "from (1146.060000, 171.720000, 0) to (1054.810000, 45.000000, 0) unit=none" 0.085024969506213
scalar "Reception power" "from (1146.060000, 171.720000, 0) to (1054.810000, 45.000000, 0) unit=dBm" 3.2954883077516
scalar Pathloss "from (1146.060000, 171.720000, 0) to (1215.180000, 24.990000, 0) unit=none" 0.040592904004002
scalar "Reception power" "from (1146.060000, 171.720000, 0) to (1215.180000, 24.990000, 0) unit=dBm" 0.08452467651737
scalar Pathloss "from (1146.060000, 171.720000, 0) to (1037.150000, 32.840000, 0) unit=none" 0.0021643026168305
scalar "Reception power" "from (1146.060000, 171.720000, 0) to (1037.150000, 32.840000, 0) unit=dBm" -12.64679669527
scalar Pathloss "from (1146.060000, 171.720000, 0) to (1228.890000, 8.470000, 0) unit=none" 0.0002819968634211
scalar "Reception power" "from (1146.060000, 171.720000, 0) to (1228.890000, 8.470000, 0) unit=dBm" -21.497533762721
scalar Pathloss "from (1146.060000, 171.720000, 0) to (1027.200000, 25.990000, 0) unit=none" 3.9155299084981e-05
scalar "Reception power" "from (1146.060000, 171.720000, 0) to (1027.200000, 25.990000, 0) unit=dBm" -30.072071084282
scalar Pathloss "from (1146.060000, 171.720000, 0) to (1235.930000, 0.000000, 0) unit=none" 3.3592580394576e-06
scalar "Reception power" "from (1146.060000, 171.720000, 0) to (1235.930000, 0.000000, 0) unit=dBm" -40.737542888704
scalar Pathloss "from (1146.060000, 171.720000, 0) to (1020.870000, 21.630000, 0) unit=none" 2.6271153792049e-06
scalar "Reception power" "from (1146.060000, 171.720000, 0) to (1020.870000, 21.630000, 0) unit=dBm" -41.805185072656
scalar Pathloss "from (1146.060000, 171.720000, 0) to (1011.050000, 14.870000, 0) unit=none" 0.0003527548952257
scalar "Reception power" "from (1146.060000, 171.720000, 0) to (1011.050000, 14.870000, 0) unit=dBm" -20.525246048427
scalar Pathloss "from (1146.060000, 171.720000, 0) to (1000.000000, 7.270000, 0) unit=none" 0.0083319954961217
scalar "Reception power" "from (1146.060000, 171.720000, 0) to (1000.000000, 7.270000, 0) unit=dBm" -6.792486275551
scalar Pathloss "from (1146.060000, 171.720000, 0) to (250.000000, 150.000000, 0) unit=none" 0.00031857905583883
scalar "Reception power" "from (1146.060000, 171.720000, 0) to (250.000000, 150.000000, 0) unit=dBm" -20.967804332429
scalar Pathloss "from (1116.970000, 88.170000, 0) to (1113.870000, 71.910000, 0) unit=none" 0.66979113326853
scalar "Reception power" "from (1116.970000, 88.170000, 0) to (1113.870000, 71.910000, 0) unit=dBm" 12.259417399559
scalar Pathloss "from (1116.970000, 88.170000, 0) to (1098.410000, 75.370000, 0) unit=none" 0.21442993091321
scalar "Reception power" "from (1116.970000, 88.170000, 0) to (1098.410000, 75.370000, 0) unit=dBm" 7.3128775159044
scalar Pathloss "from (1116.970000, 88.170000, 0) to (1137.760000, 102.530000, 0) unit=none" 0.11926069002382
scalar "Reception power" "from (1116.970000, 88.170000, 0) to (1137.760000, 102.530000, 0) unit=dBm" 4.7649966370535
scalar Pathloss "from (1116.970000, 88.170000, 0) to (1094.300000, 72.490000, 0) unit=none" 0.07251261885846
scalar "Reception power" "from (1116.970000, 88.170000, 0) to (1094.300000, 72.490000, 0) unit=dBm" 2.604159362744
scalar Pathloss "from (1116.970000, 88.170000, 0) to (1141.650000, 65.690000, 0) unit=none" 0.026581445949575
scalar "Reception power" "from (1116.970000, 88.170000, 0) to (1141.650000, 65.690000, 0) unit=dBm" -1.7541905252772
scalar Pathloss "from (1116.970000, 88.170000, 0) to (1077.680000, 102.120000, 0) unit=none" 0.022685875894693
scalar "Reception power" "from (1116.970000, 88.170000, 0) to (1077.680000, 102.120000, 0) unit=dBm" -2.4424210216988
scalar Pathloss "from (1116.970000, 88.170000, 0) to (1150.810000, 63.640000, 0) unit=none" 0.022761125899578
scalar "Reception power" "from (1116.970000, 88.170000, 0) to (1150.810000, 63.640000, 0) unit=dBm" -2.4280391305024
scalar Pathloss "from (1116.970000, 88.170000, 0) to (1079.150000, 110.100000, 0) unit=none" 0.024154446078763
scalar "Reception power" "from (1116.970000, 88.170000, 0) to (1079.150000, 110.100000, 0) unit=dBm" -2.1700057158277
scalar Pathloss "from (1116.970000, 88.170000, 0) to (1072.720000, 75.060000, 0) unit=none" 0.025352425027532
scalar "Reception power" "from (1116.970000, 88.170000, 0) to (1072.720000, 75.060000, 0) unit=dBm" -1.9597814698239
scalar Pathloss "from (1116.970000, 88.170000, 0) to (1157.260000, 116.600000, 0) unit=none" 0.02493813826799
scalar "Reception power" "from (1116.970000, 88.170000, 0) to (1157.260000, 116.600000, 0) unit=dBm" -2.0313362554372
scalar Pathloss "from (1116.970000, 88.170000, 0) to (1165.590000, 60.330000, 0) unit=none" 0.016614626955988
scalar "Reception power" "from (1116.970000, 88.170000, 0) to (1165.590000, 60.330000, 0) unit=dBm" -3.7950705945188
scalar Pathloss "from (1116.970000, 88.170000, 0) to (1069.010000, 54.770000, 0) unit=none" 0.012790120856895
scalar "Reception power" "from (1116.970000, 88.170000, 0) to (1069.010000, 54.770000, 0) unit=dBm" -4.9312300582211
scalar Pathloss "from (1116.970000, 88.170000, 0) to (1151.280000, 146.030000, 0) unit=none" 0.0059583009197525
scalar "Reception power" "from (1116.970000, 88.170000, 0) to (1151.280000, 146.030000, 0) unit=dBm" -8.2487522090503
scalar Pathloss "from (1116.970000, 88.170000, 0) to (1054.810000, 45.000000, 0) unit=none" 0.018114636394547
scalar "Reception power" "from (1116.970000, 88.170000, 0) to (1054.810000, 45.000000, 0) unit=dBm" -3.4196803297594
scalar Pathloss "from (1116.970000, 88.170000, 0) to (1190.440000, 54.770000, 0) unit=none" 0.039834135110908
scalar "Reception power" "from (1116.970000, 88.170000, 0) to (1190.440000, 54.770000, 0) unit=dBm" 0.00257738017273
scalar Pathloss "from (1116.970000, 88.170000, 0) to (1194.430000, 49.970000, 0) unit=none" 0.075161244410148
scalar "Reception power" "from (1116.970000, 88.170000, 0) to (1194.430000, 49.970000, 0) unit=dBm" 2.7599630782992
scalar Pathloss "from (1116.970000, 88.170000, 0) to (1146.060000, 171.720000, 0) unit=none" 0.088438612154893
scalar "Reception power" "from (1116.970000, 88.170000, 0) to (1146.060000, 171.720000, 0) unit=dBm" 3.46644264613
scalar Pathloss "from (1116.970000, 88.170000, 0) to (1037.150000, 32.840000, 0) unit=none" 0.11894549100591
scalar "Reception power" "from (1116.970000, 88.170000, 0) to (1037.150000, 32.840000, 0) unit=dBm" 4.7535032934732
scalar Pathloss "from (1116.970000, 88.170000, 0) to (1208.170000, 33.430000, 0) unit=none" 0.099244549273083
scalar "Reception power" "from (1116.970000, 88.170000, 0) to (1208.170000, 33.430000, 0) unit=dBm" 3.9670900961875
scalar Pathloss "from (1116.970000, 88.170000, 0) to (1027.200000, 25.990000, 0) unit=none" 0.089654099202832
scalar "Reception power" "from (1116.970000, 88.170000, 0) to (1027.200000, 25.990000, 0) unit=dBm" 3.5257249727703
scalar Pathloss "from (1116.970000, 88.170000, 0) to (1215.180000, 24.990000, 0) unit=none" 0.077022248645196
scalar "Reception power" "from (1116.970000, 88.170000, 0) to (1215.180000, 24.990000, 0) unit=dBm" 2.8661853951803
scalar Pathloss "from (1116.970000, 88.170000, 0) to (1020.870000, 21.630000, 0) unit=none" 0.077062334109804
scalar "Reception power" "from (1116.970000, 88.170000, 0) to (1020.870000, 21.630000, 0) unit=dBm" 2.868445049737
scalar Pathloss "from (1116.970000, 88.170000, 0) to (1011.050000, 14.870000, 0) unit=none" 0.12489239837003
scalar "Reception power" "from (1116.970000, 88.170000, 0) to (1011.050000, 14.870000, 0) unit=dBm" 4.965383515846
scalar Pathloss "from (1116.970000, 88.170000, 0) to (1228.890000, 8.470000, 0) unit=none" 0.17442335536327
scalar "Reception power" "from (1116.970000, 88.170000, 0) to (1228.890000, 8.470000, 0) unit=dBm" 6.4160698263848
scalar Pathloss "from (1116.970000, 88.170000, 0) to (1000.000000, 7.270000, 0) unit=none" 0.17909375143493
scalar "Reception power" "from (1116.970000, 88.170000, 0) to (1000.000000, 7.270000, 0) unit=dBm" 6.5308277954545
scalar Pathloss "from (1116.970000, 88.170000, 0) to (1235.930000, 0.000000, 0) unit=none" 0.1529538066338
scalar "Reception power" "from (1116.970000, 88.170000, 0) to (1235.930000, 0.000000, 0) unit=dBm" 5.8456263587554
scalar Pathloss "from (1116.970000, 88.170000, 0) to (250.000000, 150.000000, 0) unit=none" 0.00016930156193401
scalar "Reception power" "from (1116.970000, 88.170000, 0) to (250.000000, 150.000000, 0) unit=dBm" -23.71336689252
scalar Pathloss "from (1054.810000, 45.000000, 0) to (1069.010000, 54.770000, 0) unit=none" 0.59664617748275
scalar "Reception power" "from (1054.810000, 45.000000, 0) to (1069.010000, 54.770000, 0) unit=dBm" 11.757192085139
scalar Pathloss "from (1054.810000, 45.000000, 0) to (1037.150000, 32.840000, 0) unit=none" 0.26962632250671
scalar "Reception power" "from (1054.810000, 45.000000, 0) to (1037.150000, 32.840000, 0) unit=dBm" 8.3076463424146
scalar Pathloss "from (1054.810000, 45.000000, 0) to (1027.200000, 25.990000, 0) unit=none" 0.026181003124286
scalar "Reception power" "from (1054.810000, 45.000000, 0) to (1027.200000, 25.990000, 0) unit=dBm" -1.8201137155953
scalar Pathloss "from (1054.810000, 45.000000, 0) to (1072.720000, 75.060000, 0) unit=none" 0.023002791375948
scalar "Reception power" "from (1054.810000, 45.000000, 0) to (1072.720000, 75.060000, 0) unit=dBm" -2.3821711346256
scalar Pathloss "from (1054.810000, 45.000000, 0) to (1020.870000, 21.630000, 0) unit=none" 0.022337269405308
scalar "Reception power" "from (1054.810000, 45.000000, 0) to (1020.870000, 21.630000, 0) unit=dBm" -2.509675718944
scalar Pathloss "from (1054.810000, 45.000000, 0) to (1094.300000, 72.490000, 0) unit=none" 0.025402507275656
scalar "Reception power" "from (1054.810000, 45.000000, 0) to (1094.300000, 72.490000, 0) unit=dBm" -1.951210696473
scalar Pathloss "from (1054.810000, 45.000000, 0) to (1011.050000, 14.870000, 0) unit=none" 0.021081587173553
scalar "Reception power" "from (1054.810000, 45.000000, 0) to (1011.050000, 14.870000, 0) unit=dBm" -2.7609434948753
scalar Pathloss "from (1054.810000, 45.000000, 0) to (1098.410000, 75.370000, 0) unit=none" 0.021074471386955
scalar "Reception power" "from (1054.810000, 45.000000, 0) to (1098.410000, 75.370000, 0) unit=dBm" -2.7624096408999
scalar Pathloss "from (1054.810000, 45.000000, 0) to (1077.680000, 102.120000, 0) unit=none" 0.0087747328719291
scalar "Reception power" "from (1054.810000, 45.000000, 0) to (1077.680000, 102.120000, 0) unit=dBm" -6.5676374990432
scalar Pathloss "from (1054.810000, 45.000000, 0) to (1113.870000, 71.910000, 0) unit=none" 0.0062799625730198
scalar "Reception power" "from (1054.810000, 45.000000, 0) to (1113.870000, 71.910000, 0) unit=dBm" -8.0204059861182
scalar Pathloss "from (1054.810000, 45.000000, 0) to (1000.000000, 7.270000, 0) unit=none" 0.0059217552886731
scalar "Reception power" "from (1054.810000, 45.000000, 0) to (1000.000000, 7.270000, 0) unit=dBm" -8.275471974853
scalar Pathloss "from (1054.810000, 45.000000, 0) to (1079.150000, 110.100000, 0) unit=none" 0.0068998496369757
scalar "Reception power" "from (1054.810000, 45.000000, 0) to (1079.150000, 110.100000, 0) unit=dBm" -7.611580274715
scalar Pathloss "from (1054.810000, 45.000000, 0) to (1116.970000, 88.170000, 0) unit=none" 0.018114636394547
scalar "Reception power" "from (1054.810000, 45.000000, 0) to (1116.970000, 88.170000, 0) unit=dBm" -3.4196803297594
scalar Pathloss "from (1054.810000, 45.000000, 0) to (1141.650000, 65.690000, 0) unit=none" 0.093159392897881
scalar "Reception power" "from (1054.810000, 45.000000, 0) to (1141.650000, 65.690000, 0) unit=dBm" 3.6922899558494
scalar Pathloss "from (1054.810000, 45.000000, 0) to (1150.810000, 63.640000, 0) unit=none" 0.11905500121681
scalar "Reception power" "from (1054.810000, 45.000000, 0) to (1150.810000, 63.640000, 0) unit=dBm" 4.7574998972801
scalar Pathloss "from (1054.810000, 45.000000, 0) to (1137.760000, 102.530000, 0) unit=none" 0.11551241775815
scalar "Reception power" "from (1054.810000, 45.000000, 0) to (1137.760000, 102.530000, 0) unit=dBm" 4.6263101997392
scalar Pathloss "from (1054.810000, 45.000000, 0) to (1165.590000, 60.330000, 0) unit=none" 0.082345360925022
scalar "Reception power" "from (1054.810000, 45.000000, 0) to (1165.590000, 60.330000, 0) unit=dBm" 3.1564148335705
scalar Pathloss "from (1054.810000, 45.000000, 0) to (1157.260000, 116.600000, 0) unit=none" 0.10135827993727
scalar "Reception power" "from (1054.810000, 45.000000, 0) to (1157.260000, 116.600000, 0) unit=dBm" 4.0586157783401
scalar Pathloss "from (1054.810000, 45.000000, 0) to (1190.440000, 54.770000, 0) unit=none" 0.16884640599366
scalar "Reception power" "from (1054.810000, 45.000000, 0) to (1190.440000, 54.770000, 0) unit=dBm" 6.2749416675528
scalar Pathloss "from (1054.810000, 45.000000, 0) to (1151.280000, 146.030000, 0) unit=none" 0.17961958198728
scalar "Reception power" "from (1054.810000, 45.000000, 0) to (1151.280000, 146.030000, 0) unit=dBm" 6.5435602728727
scalar Pathloss "from (1054.810000, 45.000000, 0) to (1194.430000, 49.970000, 0) unit=none" 0.17963934372371
scalar "Reception power" "from (1054.810000, 45.000000, 0) to (1194.430000, 49.970000, 0) unit=dBm" 6.544038057138
scalar Pathloss "from (1054.810000, 45.000000, 0) to (1208.170000, 33.430000, 0) unit=none" 0.10567977458949
scalar "Reception power" "from (1054.810000, 45.000000, 0) to (1208.170000, 33.430000, 0) unit=dBm" 4.2399422420355
scalar Pathloss "from (1054.810000, 45.000000, 0) to (1146.060000, 171.720000, 0) unit=none" 0.085024969506213
scalar "Reception power" "from (1054.810000, 45.000000, 0) to (1146.060000, 171.720000, 0) unit=dBm" 3.2954883077516
scalar Pathloss "from (1054.810000, 45.000000, 0) to (1215.180000, 24.990000, 0) unit=none" 0.044107288194126
scalar "Reception power" "from (1054.810000, 45.000000, 0) to (1215.180000, 24.990000, 0) unit=dBm" 0.44512703218246
scalar Pathloss "from (1054.810000, 45.000000, 0) to (1228.890000, 8.470000, 0) unit=none" 0.0014721256513451
scalar "Reception power" "from (1054.810000, 45.000000, 0) to (1228.890000, 8.470000, 0) unit=dBm" -14.320527738553
scalar Pathloss "from (1054.810000, 45.000000, 0) to (1235.930000, 0.000000, 0) unit=none" 7.2062792452601e-05
scalar "Reception power" "from (1054.810000, 45.000000, 0) to (1235.930000, 0.000000, 0) unit=dBm" -27.422865669314
scalar Pathloss "from (1054.810000, 45.000000, 0) to (250.000000, 150.000000, 0) unit=none" 0.00028656054596952
scalar "Reception power" "from (1054.810000, 45.000000, 0) to (250.000000, 150.000000, 0) unit=dBm" -21.427812581267
scalar Pathloss "from (1194.430000, 49.970000, 0) to (1190.440000, 54.770000, 0) unit=none" 1
scalar "Reception power" "from (1194.430000, 49.970000, 0) to (1190.440000, 54.770000, 0) unit=dBm" 14.00002345928
scalar Pathloss "from (1194.430000, 49.970000, 0) to (1208.170000, 33.430000, 0) unit=none" 0.26628811650011
scalar "Reception power" "from (1194.430000, 49.970000, 0) to (1208.170000, 33.430000, 0) unit=dBm" 8.2535413176763
scalar Pathloss "from (1194.430000, 49.970000, 0) to (1165.590000, 60.330000, 0) unit=none" 0.039572856542569
scalar "Reception power" "from (1194.430000, 49.970000, 0) to (1165.590000, 60.330000, 0) unit=dBm" -0.026002533915937
scalar Pathloss "from (1194.430000, 49.970000, 0) to (1215.180000, 24.990000, 0) unit=none" 0.029744629791219
scalar "Reception power" "from (1194.430000, 49.970000, 0) to (1215.180000, 24.990000, 0) unit=dBm" -1.2658908611048
scalar Pathloss "from (1194.430000, 49.970000, 0) to (1150.810000, 63.640000, 0) unit=none" 0.025215372685331
scalar "Reception power" "from (1194.430000, 49.970000, 0) to (1150.810000, 63.640000, 0) unit=dBm" -1.9833226262045
scalar Pathloss "from (1194.430000, 49.970000, 0) to (1228.890000, 8.470000, 0) unit=none" 0.019904129779773
scalar "Reception power" "from (1194.430000, 49.970000, 0) to (1228.890000, 8.470000, 0) unit=dBm" -3.010544593463
scalar Pathloss "from (1194.430000, 49.970000, 0) to (1141.650000, 65.690000, 0) unit=none" 0.018152394853712
scalar "Reception power" "from (1194.430000, 49.970000, 0) to (1141.650000, 65.690000, 0) unit=dBm" -3.4106372425141
scalar Pathloss "from (1194.430000, 49.970000, 0) to (1235.930000, 0.000000, 0) unit=none" 0.0062587869461002
scalar "Reception power" "from (1194.430000, 49.970000, 0) to (1235.930000, 0.000000, 0) unit=dBm" -8.0350748598382
scalar Pathloss "from (1194.430000, 49.970000, 0) to (1157.260000, 116.600000, 0) unit=none" 0.020121017496695
scalar "Reception power" "from (1194.430000, 49.970000, 0) to (1157.260000, 116.600000, 0) unit=dBm" -2.9634771536079
scalar Pathloss "from (1194.430000, 49.970000, 0) to (1137.760000, 102.530000, 0) unit=none" 0.023752298901194
scalar "Reception power" "from (1194.430000, 49.970000, 0) to (1137.760000, 102.530000, 0) unit=dBm" -2.242920042465
scalar Pathloss "from (1194.430000, 49.970000, 0) to (1113.870000, 71.910000, 0) unit=none" 0.056470913561628
scalar "Reception power" "from (1194.430000, 49.970000, 0) to (1113.870000, 71.910000, 0) unit=dBm" 1.5182715954698
scalar Pathloss "from (1194.430000, 49.970000, 0) to (1116.970000, 88.170000, 0) unit=none" 0.075161244410148
scalar "Reception power" "from (1194.430000, 49.970000, 0) to (1116.970000, 88.170000, 0) unit=dBm" 2.7599630782992
scalar Pathloss "from (1194.430000, 49.970000, 0) to (1098.410000, 75.370000, 0) unit=none" 0.11811945309202
scalar "Reception power" "from (1194.430000, 49.970000, 0) to (1098.410000, 75.370000, 0) unit=dBm" 4.7232377338736
scalar Pathloss "from (1194.430000, 49.970000, 0) to (1094.300000, 72.490000, 0) unit=none" 0.11139383879579
scalar "Reception power" "from (1194.430000, 49.970000, 0) to (1094.300000, 72.490000, 0) unit=dBm" 4.468635165593
scalar Pathloss "from (1194.430000, 49.970000, 0) to (1151.280000, 146.030000, 0) unit=none" 0.10292007282412
scalar "Reception power" "from (1194.430000, 49.970000, 0) to (1151.280000, 146.030000, 0) unit=dBm" 4.1250243076421
scalar Pathloss "from (1194.430000, 49.970000, 0) to (1072.720000, 75.060000, 0) unit=none" 0.097579869267513
scalar "Reception power" "from (1194.430000, 49.970000, 0) to (1072.720000, 75.060000, 0) unit=dBm" 3.893625778592
scalar Pathloss "from (1194.430000, 49.970000, 0) to (1069.010000, 54.770000, 0) unit=none" 0.10425093584991
scalar "Reception power" "from (1194.430000, 49.970000, 0) to (1069.010000, 54.770000, 0) unit=dBm" 4.1808230820805
scalar Pathloss "from (1194.430000, 49.970000, 0) to (1077.680000, 102.120000, 0) unit=none" 0.11867909753262
scalar "Reception power" "from (1194.430000, 49.970000, 0) to (1077.680000, 102.120000, 0) unit=dBm" 4.7437658109471
scalar Pathloss "from (1194.430000, 49.970000, 0) to (1079.150000, 110.100000, 0) unit=none" 0.13304278166604
scalar "Reception power" "from (1194.430000, 49.970000, 0) to (1079.150000, 110.100000, 0) unit=dBm" 5.2399366248805
scalar Pathloss "from (1194.430000, 49.970000, 0) to (1146.060000, 171.720000, 0) unit=none" 0.13969834323677
scalar "Reception power" "from (1194.430000, 49.970000, 0) to (1146.060000, 171.720000, 0) unit=dBm" 5.4519360152392
scalar Pathloss "from (1194.430000, 49.970000, 0) to (1054.810000, 45.000000, 0) unit=none" 0.17963934372371
scalar "Reception power" "from (1194.430000, 49.970000, 0) to (1054.810000, 45.000000, 0) unit=dBm" 6.544038057138
scalar Pathloss "from (1194.430000, 49.970000, 0) to (1037.150000, 32.840000, 0) unit=none" 0.068133611910711
scalar "Reception power" "from (1194.430000, 49.970000, 0) to (1037.150000, 32.840000, 0) unit=dBm" 2.3336375837112
scalar Pathloss "from (1194.430000, 49.970000, 0) to (1027.200000, 25.990000, 0) unit=none" 0.012727965488083
scalar "Reception power" "from (1194.430000, 49.970000, 0) to (1027.200000, 25.990000, 0) unit=dBm" -4.9523866502274
scalar Pathloss "from (1194.430000, 49.970000, 0) to (1020.870000, 21.630000, 0) unit=none" 0.0025646234263314
scalar "Reception power" "from (1194.430000, 49.970000, 0) to (1020.870000, 21.630000, 0) unit=dBm" -11.90974049097
scalar Pathloss "from (1194.430000, 49.970000, 0) to (1011.050000, 14.870000, 0) unit=none" 6.9640979008358e-05
scalar "Reception power" "from (1194.430000, 49.970000, 0) to (1011.050000, 14.870000, 0) unit=dBm" -27.571327863002
scalar Pathloss "from (1194.430000, 49.970000, 0) to (1000.000000, 7.270000, 0) unit=none" 9.6455754995574e-06
scalar "Reception power" "from (1194.430000, 49.970000, 0) to (1000.000000, 7.270000, 0) unit=dBm" -36.156695093056
scalar Pathloss "from (1194.430000, 49.970000, 0) to (250.000000, 150.000000, 0) unit=none" 8.399086863639e-05
scalar "Reception power" "from (1194.430000, 49.970000, 0) to (250.000000, 150.000000, 0) unit=dBm" -26.757655813006
scalar Pathloss "from (1141.650000, 65.690000, 0) to (1150.810000, 63.640000, 0) unit=none" 1
scalar "Reception power" "from (1141.650000, 65.690000, 0) to (1150.810000, 63.640000, 0) unit=dBm" 14.00002345928
scalar Pathloss "from (1141.650000, 65.690000, 0) to (1165.590000, 60.330000, 0) unit=none" 0.13999208681732
scalar "Reception power" "from (1141.650000, 65.690000, 0) to (1165.590000, 60.330000, 0) unit=dBm" 5.461058334012
scalar Pathloss "from (1141.650000, 65.690000, 0) to (1113.870000, 71.910000, 0) unit=none" 0.060043049715583
scalar "Reception power" "from (1141.650000, 65.690000, 0) to (1113.870000, 71.910000, 0) unit=dBm" 1.7846508880985
scalar Pathloss "from (1141.650000, 65.690000, 0) to (1116.970000, 88.170000, 0) unit=none" 0.026581445949575
scalar "Reception power" "from (1141.650000, 65.690000, 0) to (1116.970000, 88.170000, 0) unit=dBm" -1.7541905252772
scalar Pathloss "from (1141.650000, 65.690000, 0) to (1137.760000, 102.530000, 0) unit=none" 0.02111070532463
scalar "Reception power" "from (1141.650000, 65.690000, 0) to (1137.760000, 102.530000, 0) unit=dBm" -2.7549491041491
scalar Pathloss "from (1141.650000, 65.690000, 0) to (1098.410000, 75.370000, 0) unit=none" 0.024531712203383
scalar "Reception power" "from (1141.650000, 65.690000, 0) to (1098.410000, 75.370000, 0) unit=dBm" -2.1026979300261
scalar Pathloss "from (1141.650000, 65.690000, 0) to (1094.300000, 72.490000, 0) unit=none" 0.025455847200097
scalar "Reception power" "from (1141.650000, 65.690000, 0) to (1094.300000, 72.490000, 0) unit=dBm" -1.9421009863448
scalar Pathloss "from (1141.650000, 65.690000, 0) to (1190.440000, 54.770000, 0) unit=none" 0.024498446865465
scalar "Reception power" "from (1141.650000, 65.690000, 0) to (1190.440000, 54.770000, 0) unit=dBm" -2.1085910191728
scalar Pathloss "from (1141.650000, 65.690000, 0) to (1157.260000, 116.600000, 0) unit=none" 0.02091353929092
scalar "Reception power" "from (1141.650000, 65.690000, 0) to (1157.260000, 116.600000, 0) unit=dBm" -2.7957011745502
scalar Pathloss "from (1141.650000, 65.690000, 0) to (1194.430000, 49.970000, 0) unit=none" 0.018152394853712
scalar "Reception power" "from (1141.650000, 65.690000, 0) to (1194.430000, 49.970000, 0) unit=dBm" -3.4106372425141
scalar Pathloss "from (1141.650000, 65.690000, 0) to (1072.720000, 75.060000, 0) unit=none" 0.0069457045097179
scalar "Reception power" "from (1141.650000, 65.690000, 0) to (1072.720000, 75.060000, 0) unit=dBm" -7.5828135084287
scalar Pathloss "from (1141.650000, 65.690000, 0) to (1069.010000, 54.770000, 0) unit=none" 0.01233634491229
scalar "Reception power" "from (1141.650000, 65.690000, 0) to (1069.010000, 54.770000, 0) unit=dBm" -5.0881115074112
scalar Pathloss "from (1141.650000, 65.690000, 0) to (1077.680000, 102.120000, 0) unit=none" 0.012678717317181
scalar "Reception power" "from (1141.650000, 65.690000, 0) to (1077.680000, 102.120000, 0) unit=dBm" -4.9692233508846
scalar Pathloss "from (1141.650000, 65.690000, 0) to (1208.170000, 33.430000, 0) unit=none" 0.013383006862848
scalar "Reception power" "from (1141.650000, 65.690000, 0) to (1208.170000, 33.430000, 0) unit=dBm" -4.7344395340312
scalar Pathloss "from (1141.650000, 65.690000, 0) to (1079.150000, 110.100000, 0) unit=none" 0.021431343913586
scalar "Reception power" "from (1141.650000, 65.690000, 0) to (1079.150000, 110.100000, 0) unit=dBm" -2.6894824850131
scalar Pathloss "from (1141.650000, 65.690000, 0) to (1151.280000, 146.030000, 0) unit=none" 0.040990950903715
scalar "Reception power" "from (1141.650000, 65.690000, 0) to (1151.280000, 146.030000, 0) unit=dBm" 0.1269033907847
scalar Pathloss "from (1141.650000, 65.690000, 0) to (1215.180000, 24.990000, 0) unit=none" 0.059983624104819
scalar "Reception power" "from (1141.650000, 65.690000, 0) to (1215.180000, 24.990000, 0) unit=dBm" 1.7803504745111
scalar Pathloss "from (1141.650000, 65.690000, 0) to (1054.810000, 45.000000, 0) unit=none" 0.093159392897881
scalar "Reception power" "from (1141.650000, 65.690000, 0) to (1054.810000, 45.000000, 0) unit=dBm" 3.6922899558494
scalar Pathloss "from (1141.650000, 65.690000, 0) to (1228.890000, 8.470000, 0) unit=none" 0.1061961469598
scalar "Reception power" "from (1141.650000, 65.690000, 0) to (1228.890000, 8.470000, 0) unit=dBm" 4.2611110575764
scalar Pathloss "from (1141.650000, 65.690000, 0) to (1146.060000, 171.720000, 0) unit=none" 0.10009934514848
scalar "Reception power" "from (1141.650000, 65.690000, 0) to (1146.060000, 171.720000, 0) unit=dBm" 4.004335822551
scalar Pathloss "from (1141.650000, 65.690000, 0) to (1037.150000, 32.840000, 0) unit=none" 0.088592342111058
scalar "Reception power" "from (1141.650000, 65.690000, 0) to (1037.150000, 32.840000, 0) unit=dBm" 3.4739852918469
scalar Pathloss "from (1141.650000, 65.690000, 0) to (1235.930000, 0.000000, 0) unit=none" 0.077470724661356
scalar "Reception power" "from (1141.650000, 65.690000, 0) to (1235.930000, 0.000000, 0) unit=dBm" 2.8913996430537
scalar Pathloss "from (1141.650000, 65.690000, 0) to (1027.200000, 25.990000, 0) unit=none" 0.084617388746768
scalar "Reception power" "from (1141.650000, 65.690000, 0) to (1027.200000, 25.990000, 0) unit=dBm" 3.2746196500445
scalar Pathloss "from (1141.650000, 65.690000, 0) to (1020.870000, 21.630000, 0) unit=none" 0.12326590922498
scalar "Reception power" "from (1141.650000, 65.690000, 0) to (1020.870000, 21.630000, 0) unit=dBm" 4.9084532939632
scalar Pathloss "from (1141.650000, 65.690000, 0) to (1011.050000, 14.870000, 0) unit=none" 0.18002216806325
scalar "Reception power" "from (1141.650000, 65.690000, 0) to (1011.050000, 14.870000, 0) unit=dBm" 6.5532833366879
scalar Pathloss "from (1141.650000, 65.690000, 0) to (1000.000000, 7.270000, 0) unit=none" 0.1107512506771
scalar "Reception power" "from (1141.650000, 65.690000, 0) to (1000.000000, 7.270000, 0) unit=dBm" 4.4435098519415
scalar Pathloss "from (1141.650000, 65.690000, 0) to (250.000000, 150.000000, 0) unit=none" 0.00031661926190918
scalar "Reception power" "from (1141.650000, 65.690000, 0) to (250.000000, 150.000000, 0) unit=dBm" -20.994603219209
scalar Pathloss "from (1069.010000, 54.770000, 0) to (1054.810000, 45.000000, 0) unit=none" 0.59664617748275
scalar "Reception power" "from (1069.010000, 54.770000, 0) to (1054.810000, 45.000000, 0) unit=dBm" 11.757192085139
scalar Pathloss "from (1069.010000, 54.770000, 0) to (1072.720000, 75.060000, 0) unit=none" 0.31776112779085
scalar "Reception power" "from (1069.010000, 54.770000, 0) to (1072.720000, 75.060000, 0) unit=dBm" 9.0210311413446
scalar Pathloss "from (1069.010000, 54.770000, 0) to (1094.300000, 72.490000, 0) unit=none" 0.037993860104821
scalar "Reception power" "from (1069.010000, 54.770000, 0) to (1094.300000, 72.490000, 0) unit=dBm" -0.20284234772138
scalar Pathloss "from (1069.010000, 54.770000, 0) to (1098.410000, 75.370000, 0) unit=none" 0.021862229555535
scalar "Reception power" "from (1069.010000, 54.770000, 0) to (1098.410000, 75.370000, 0) unit=dBm" -2.6030320394735
scalar Pathloss "from (1069.010000, 54.770000, 0) to (1037.150000, 32.840000, 0) unit=none" 0.021037435629581
scalar "Reception power" "from (1069.010000, 54.770000, 0) to (1037.150000, 32.840000, 0) unit=dBm" -2.770048539419
scalar Pathloss "from (1069.010000, 54.770000, 0) to (1113.870000, 71.910000, 0) unit=none" 0.025422569153593
scalar "Reception power" "from (1069.010000, 54.770000, 0) to (1113.870000, 71.910000, 0) unit=dBm" -1.9477821671134
scalar Pathloss "from (1069.010000, 54.770000, 0) to (1077.680000, 102.120000, 0) unit=none" 0.025397642310533
scalar "Reception power" "from (1069.010000, 54.770000, 0) to (1077.680000, 102.120000, 0) unit=dBm" -1.9520425158794
scalar Pathloss "from (1069.010000, 54.770000, 0) to (1027.200000, 25.990000, 0) unit=none" 0.023869410699756
scalar "Reception power" "from (1069.010000, 54.770000, 0) to (1027.200000, 25.990000, 0) unit=dBm" -2.2215595701767
scalar Pathloss "from (1069.010000, 54.770000, 0) to (1079.150000, 110.100000, 0) unit=none" 0.016250125908677
scalar "Reception power" "from (1069.010000, 54.770000, 0) to (1079.150000, 110.100000, 0) unit=dBm" -3.8914092375826
scalar Pathloss "from (1069.010000, 54.770000, 0) to (1020.870000, 21.630000, 0) unit=none" 0.012790151692462
scalar "Reception power" "from (1069.010000, 54.770000, 0) to (1020.870000, 21.630000, 0) unit=dBm" -4.9312195878739
scalar Pathloss "from (1069.010000, 54.770000, 0) to (1116.970000, 88.170000, 0) unit=none" 0.012790120856895
scalar "Reception power" "from (1069.010000, 54.770000, 0) to (1116.970000, 88.170000, 0) unit=dBm" -4.9312300582211
scalar Pathloss "from (1069.010000, 54.770000, 0) to (1011.050000, 14.870000, 0) unit=none" 0.0076369858788926
scalar "Reception power" "from (1069.010000, 54.770000, 0) to (1011.050000, 14.870000, 0) unit=dBm" -7.1707566649743
scalar Pathloss "from (1069.010000, 54.770000, 0) to (1141.650000, 65.690000, 0) unit=none" 0.01233634491229
scalar "Reception power" "from (1069.010000, 54.770000, 0) to (1141.650000, 65.690000, 0) unit=dBm" -5.0881115074112
scalar Pathloss "from (1069.010000, 54.770000, 0) to (1150.810000, 63.640000, 0) unit=none" 0.048926269923685
scalar "Reception power" "from (1069.010000, 54.770000, 0) to (1150.810000, 63.640000, 0) unit=dBm" 0.89544452893477
scalar Pathloss "from (1069.010000, 54.770000, 0) to (1137.760000, 102.530000, 0) unit=none" 0.057855321455752
scalar "Reception power" "from (1069.010000, 54.770000, 0) to (1137.760000, 102.530000, 0) unit=dBm" 1.623456568835
scalar Pathloss "from (1069.010000, 54.770000, 0) to (1000.000000, 7.270000, 0) unit=none" 0.058277728927193
scalar "Reception power" "from (1069.010000, 54.770000, 0) to (1000.000000, 7.270000, 0) unit=dBm" 1.6550496497639
scalar Pathloss "from (1069.010000, 54.770000, 0) to (1165.590000, 60.330000, 0) unit=none" 0.11873423531694
scalar "Reception power" "from (1069.010000, 54.770000, 0) to (1165.590000, 60.330000, 0) unit=dBm" 4.7457830553555
scalar Pathloss "from (1069.010000, 54.770000, 0) to (1157.260000, 116.600000, 0) unit=none" 0.094435360019484
scalar "Reception power" "from (1069.010000, 54.770000, 0) to (1157.260000, 116.600000, 0) unit=dBm" 3.751369862635
scalar Pathloss "from (1069.010000, 54.770000, 0) to (1190.440000, 54.770000, 0) unit=none" 0.08556454119524
scalar "Reception power" "from (1069.010000, 54.770000, 0) to (1190.440000, 54.770000, 0) unit=dBm" 3.3229617189403
scalar Pathloss "from (1069.010000, 54.770000, 0) to (1151.280000, 146.030000, 0) unit=none" 0.091050481308296
scalar "Reception power" "from (1069.010000, 54.770000, 0) to (1151.280000, 146.030000, 0) unit=dBm" 3.592845918193
scalar Pathloss "from (1069.010000, 54.770000, 0) to (1194.430000, 49.970000, 0) unit=none" 0.10425093584991
scalar "Reception power" "from (1069.010000, 54.770000, 0) to (1194.430000, 49.970000, 0) unit=dBm" 4.1808230820805
scalar Pathloss "from (1069.010000, 54.770000, 0) to (1146.060000, 171.720000, 0) unit=none" 0.17995873371469
scalar "Reception power" "from (1069.010000, 54.770000, 0) to (1146.060000, 171.720000, 0) unit=dBm" 6.5517527450541
scalar Pathloss "from (1069.010000, 54.770000, 0) to (1208.170000, 33.430000, 0) unit=none" 0.18023016636609
scalar "Reception power" "from (1069.010000, 54.770000, 0) to (1208.170000, 33.430000, 0) unit=dBm" 6.5582982951807
scalar Pathloss "from (1069.010000, 54.770000, 0) to (1215.180000, 24.990000, 0) unit=none" 0.1448917226746
scalar "Reception power" "from (1069.010000, 54.770000, 0) to (1215.180000, 24.990000, 0) unit=dBm" 5.6104592187929
scalar Pathloss "from (1069.010000, 54.770000, 0) to (1228.890000, 8.470000, 0) unit=none" 0.020400316396213
scalar "Reception power" "from (1069.010000, 54.770000, 0) to (1228.890000, 8.470000, 0) unit=dBm" -2.9036075095674
scalar Pathloss "from (1069.010000, 54.770000, 0) to (1235.930000, 0.000000, 0) unit=none" 0.0026913502598501
scalar "Reception power" "from (1069.010000, 54.770000, 0) to (1235.930000, 0.000000, 0) unit=dBm" -11.700274323316
scalar Pathloss "from (1069.010000, 54.770000, 0) to (250.000000, 150.000000, 0) unit=none" 0.00013951589493935
scalar "Reception power" "from (1069.010000, 54.770000, 0) to (250.000000, 150.000000, 0) unit=dBm" -24.553739648051
scalar Pathloss "from (1094.300000, 72.490000, 0) to (1098.410000, 75.370000, 0) unit=none" 1
scalar "Reception power" "from (1094.300000, 72.490000, 0) to (1098.410000, 75.370000, 0) unit=dBm" 14.00002345928
scalar Pathloss "from (1094.300000, 72.490000, 0) to (1113.870000, 71.910000, 0) unit=none" 0.38978717066756
scalar "Reception power" "from (1094.300000, 72.490000, 0) to (1113.870000, 71.910000, 0) unit=dBm" 9.908298867127
scalar Pathloss "from (1094.300000, 72.490000, 0) to (1072.720000, 75.060000, 0) unit=none" 0.25401153066729
scalar "Reception power" "from (1094.300000, 72.490000, 0) to (1072.720000, 75.060000, 0) unit=dBm" 8.0485577747511
scalar Pathloss "from (1094.300000, 72.490000, 0) to (1116.970000, 88.170000, 0) unit=none" 0.07251261885846
scalar "Reception power" "from (1094.300000, 72.490000, 0) to (1116.970000, 88.170000, 0) unit=dBm" 2.604159362744
scalar Pathloss "from (1094.300000, 72.490000, 0) to (1069.010000, 54.770000, 0) unit=none" 0.037993860104821
scalar "Reception power" "from (1094.300000, 72.490000, 0) to (1069.010000, 54.770000, 0) unit=dBm" -0.20284234772138
scalar Pathloss "from (1094.300000, 72.490000, 0) to (1077.680000, 102.120000, 0) unit=none" 0.025003228673306
scalar "Reception power" "from (1094.300000, 72.490000, 0) to (1077.680000, 102.120000, 0) unit=dBm" -2.0200156122146
scalar Pathloss "from (1094.300000, 72.490000, 0) to (1079.150000, 110.100000, 0) unit=none" 0.021894612124016
scalar "Reception power" "from (1094.300000, 72.490000, 0) to (1079.150000, 110.100000, 0) unit=dBm" -2.5966039825898
scalar Pathloss "from (1094.300000, 72.490000, 0) to (1141.650000, 65.690000, 0) unit=none" 0.025455847200097
scalar "Reception power" "from (1094.300000, 72.490000, 0) to (1141.650000, 65.690000, 0) unit=dBm" -1.9421009863448
scalar Pathloss "from (1094.300000, 72.490000, 0) to (1054.810000, 45.000000, 0) unit=none" 0.025402507275656
scalar "Reception power" "from (1094.300000, 72.490000, 0) to (1054.810000, 45.000000, 0) unit=dBm" -1.951210696473
scalar Pathloss "from (1094.300000, 72.490000, 0) to (1137.760000, 102.530000, 0) unit=none" 0.021490114107816
scalar "Reception power" "from (1094.300000, 72.490000, 0) to (1137.760000, 102.530000, 0) unit=dBm" -2.6775893256556
scalar Pathloss "from (1094.300000, 72.490000, 0) to (1150.810000, 63.640000, 0) unit=none" 0.014724384433754
scalar "Reception power" "from (1094.300000, 72.490000, 0) to (1150.810000, 63.640000, 0) unit=dBm" -4.3196050630812
scalar Pathloss "from (1094.300000, 72.490000, 0) to (1037.150000, 32.840000, 0) unit=none" 0.0069409251811999
scalar "Reception power" "from (1094.300000, 72.490000, 0) to (1037.150000, 32.840000, 0) unit=dBm" -7.5858029106533
scalar Pathloss "from (1094.300000, 72.490000, 0) to (1165.590000, 60.330000, 0) unit=none" 0.010198550344888
scalar "Reception power" "from (1094.300000, 72.490000, 0) to (1165.590000, 60.330000, 0) unit=dBm" -5.9145920995314
scalar Pathloss "from (1094.300000, 72.490000, 0) to (1157.260000, 116.600000, 0) unit=none" 0.022169400518603
scalar "Reception power" "from (1094.300000, 72.490000, 0) to (1157.260000, 116.600000, 0) unit=dBm" -2.5424370452917
scalar Pathloss "from (1094.300000, 72.490000, 0) to (1027.200000, 25.990000, 0) unit=none" 0.045109922623891
scalar "Reception power" "from (1094.300000, 72.490000, 0) to (1027.200000, 25.990000, 0) unit=dBm" 0.5427442809004
scalar Pathloss "from (1094.300000, 72.490000, 0) to (1020.870000, 21.630000, 0) unit=none" 0.093461829672908
scalar "Reception power" "from (1094.300000, 72.490000, 0) to (1020.870000, 21.630000, 0) unit=dBm" 3.7063662474625
scalar Pathloss "from (1094.300000, 72.490000, 0) to (1151.280000, 146.030000, 0) unit=none" 0.11088709642131
scalar "Reception power" "from (1094.300000, 72.490000, 0) to (1151.280000, 146.030000, 0) unit=dBm" 4.4488335754993
scalar Pathloss "from (1094.300000, 72.490000, 0) to (1190.440000, 54.770000, 0) unit=none" 0.11905731454677
scalar "Reception power" "from (1094.300000, 72.490000, 0) to (1190.440000, 54.770000, 0) unit=dBm" 4.7575842832081
scalar Pathloss "from (1094.300000, 72.490000, 0) to (1011.050000, 14.870000, 0) unit=none" 0.11487781040556
scalar "Reception power" "from (1094.300000, 72.490000, 0) to (1011.050000, 14.870000, 0) unit=dBm" 4.6023849516389
scalar Pathloss "from (1094.300000, 72.490000, 0) to (1194.430000, 49.970000, 0) unit=none" 0.11139383879579
scalar "Reception power" "from (1094.300000, 72.490000, 0) to (1194.430000, 49.970000, 0) unit=dBm" 4.468635165593
scalar Pathloss "from (1094.300000, 72.490000, 0) to (1146.060000, 171.720000, 0) unit=none" 0.082156366822407
scalar "Reception power" "from (1094.300000, 72.490000, 0) to (1146.060000, 171.720000, 0) unit=dBm" 3.1464357126074
scalar Pathloss "from (1094.300000, 72.490000, 0) to (1000.000000, 7.270000, 0) unit=none" 0.077686905591718
scalar "Reception power" "from (1094.300000, 72.490000, 0) to (1000.000000, 7.270000, 0) unit=dBm" 2.9035016899526
scalar Pathloss "from (1094.300000, 72.490000, 0) to (1208.170000, 33.430000, 0) unit=none" 0.082403019536632
scalar "Reception power" "from (1094.300000, 72.490000, 0) to (1208.170000, 33.430000, 0) unit=dBm" 3.1594547199486
scalar Pathloss "from (1094.300000, 72.490000, 0) to (1215.180000, 24.990000, 0) unit=none" 0.1320831544698
scalar "Reception power" "from (1094.300000, 72.490000, 0) to (1215.180000, 24.990000, 0) unit=dBm" 5.2084977832435
scalar Pathloss "from (1094.300000, 72.490000, 0) to (1228.890000, 8.470000, 0) unit=none" 0.14590019927458
scalar "Reception power" "from (1094.300000, 72.490000, 0) to (1228.890000, 8.470000, 0) unit=dBm" 5.6405823099339
scalar Pathloss "from (1094.300000, 72.490000, 0) to (1235.930000, 0.000000, 0) unit=none" 0.061292937898714
scalar "Reception power" "from (1094.300000, 72.490000, 0) to (1235.930000, 0.000000, 0) unit=dBm" 1.8741278442187
scalar Pathloss "from (1094.300000, 72.490000, 0) to (250.000000, 150.000000, 0) unit=none" 1.4011222831492e-05
scalar "Reception power" "from (1094.300000, 72.490000, 0) to (250.000000, 150.000000, 0) unit=dBm" -34.535216140187
scalar Pathloss "from (1113.870000, 71.910000, 0) to (1098.410000, 75.370000, 0) unit=none" 0.75212281332499
scalar "Reception power" "from (1113.870000, 71.910000, 0) to (1098.410000, 75.370000, 0) unit=dBm" 12.762911077888
scalar Pathloss "from (1113.870000, 71.910000, 0) to (1116.970000, 88.170000, 0) unit=none" 0.66979113326853
scalar "Reception power" "from (1113.870000, 71.910000, 0) to (1116.970000, 88.170000, 0) unit=dBm" 12.259417399559
scalar Pathloss "from (1113.870000, 71.910000, 0) to (1094.300000, 72.490000, 0) unit=none" 0.38978717066756
scalar "Reception power" "from (1113.870000, 71.910000, 0) to (1094.300000, 72.490000, 0) unit=dBm" 9.908298867127
scalar Pathloss "from (1113.870000, 71.910000, 0) to (1141.650000, 65.690000, 0) unit=none" 0.060043049715583
scalar "Reception power" "from (1113.870000, 71.910000, 0) to (1141.650000, 65.690000, 0) unit=dBm" 1.7846508880985
scalar Pathloss "from (1113.870000, 71.910000, 0) to (1150.810000, 63.640000, 0) unit=none" 0.020950761095116
scalar "Reception power" "from (1113.870000, 71.910000, 0) to (1150.810000, 63.640000, 0) unit=dBm" -2.787978495189
scalar Pathloss "from (1113.870000, 71.910000, 0) to (1137.760000, 102.530000, 0) unit=none" 0.021078670832317
scalar "Reception power" "from (1113.870000, 71.910000, 0) to (1137.760000, 102.530000, 0) unit=dBm" -2.7615443218001
scalar Pathloss "from (1113.870000, 71.910000, 0) to (1072.720000, 75.060000, 0) unit=none" 0.022381378200302
scalar "Reception power" "from (1113.870000, 71.910000, 0) to (1072.720000, 75.060000, 0) unit=dBm" -2.5011082807465
scalar Pathloss "from (1113.870000, 71.910000, 0) to (1077.680000, 102.120000, 0) unit=none" 0.025499043958493
scalar "Reception power" "from (1113.870000, 71.910000, 0) to (1077.680000, 102.120000, 0) unit=dBm" -1.9347375643553
scalar Pathloss "from (1113.870000, 71.910000, 0) to (1069.010000, 54.770000, 0) unit=none" 0.025422569153593
scalar "Reception power" "from (1113.870000, 71.910000, 0) to (1069.010000, 54.770000, 0) unit=dBm" -1.9477821671134
scalar Pathloss "from (1113.870000, 71.910000, 0) to (1079.150000, 110.100000, 0) unit=none" 0.022996334742722
scalar "Reception power" "from (1113.870000, 71.910000, 0) to (1079.150000, 110.100000, 0) unit=dBm" -2.3833903230915
scalar Pathloss "from (1113.870000, 71.910000, 0) to (1165.590000, 60.330000, 0) unit=none" 0.021260227113558
scalar "Reception power" "from (1113.870000, 71.910000, 0) to (1165.590000, 60.330000, 0) unit=dBm" -2.7242975448505
scalar Pathloss "from (1113.870000, 71.910000, 0) to (1157.260000, 116.600000, 0) unit=none" 0.0080194804062205
scalar "Reception power" "from (1113.870000, 71.910000, 0) to (1157.260000, 116.600000, 0) unit=dBm" -6.9585142344641
scalar Pathloss "from (1113.870000, 71.910000, 0) to (1054.810000, 45.000000, 0) unit=none" 0.0062799625730198
scalar "Reception power" "from (1113.870000, 71.910000, 0) to (1054.810000, 45.000000, 0) unit=dBm" -8.0204059861182
scalar Pathloss "from (1113.870000, 71.910000, 0) to (1190.440000, 54.770000, 0) unit=none" 0.028656534645958
scalar "Reception power" "from (1113.870000, 71.910000, 0) to (1190.440000, 54.770000, 0) unit=dBm" -1.4277398284433
scalar Pathloss "from (1113.870000, 71.910000, 0) to (1151.280000, 146.030000, 0) unit=none" 0.053517826509041
scalar "Reception power" "from (1113.870000, 71.910000, 0) to (1151.280000, 146.030000, 0) unit=dBm" 1.2850081327558
scalar Pathloss "from (1113.870000, 71.910000, 0) to (1194.430000, 49.970000, 0) unit=none" 0.056470913561628
scalar "Reception power" "from (1113.870000, 71.910000, 0) to (1194.430000, 49.970000, 0) unit=dBm" 1.5182715954698
scalar Pathloss "from (1113.870000, 71.910000, 0) to (1037.150000, 32.840000, 0) unit=none" 0.073388884200661
scalar "Reception power" "from (1113.870000, 71.910000, 0) to (1037.150000, 32.840000, 0) unit=dBm" 2.6563263069558
scalar Pathloss "from (1113.870000, 71.910000, 0) to (1027.200000, 25.990000, 0) unit=none" 0.11900131923199
scalar "Reception power" "from (1113.870000, 71.910000, 0) to (1027.200000, 25.990000, 0) unit=dBm" 4.755541218751
scalar Pathloss "from (1113.870000, 71.910000, 0) to (1208.170000, 33.430000, 0) unit=none" 0.11346180424165
scalar "Reception power" "from (1113.870000, 71.910000, 0) to (1208.170000, 33.430000, 0) unit=dBm" 4.5485203125537
scalar Pathloss "from (1113.870000, 71.910000, 0) to (1146.060000, 171.720000, 0) unit=none" 0.10439553525473
scalar "Reception power" "from (1113.870000, 71.910000, 0) to (1146.060000, 171.720000, 0) unit=dBm" 4.1868427126378
scalar Pathloss "from (1113.870000, 71.910000, 0) to (1020.870000, 21.630000, 0) unit=none" 0.10148903660873
scalar "Reception power" "from (1113.870000, 71.910000, 0) to (1020.870000, 21.630000, 0) unit=dBm" 4.0642147588662
scalar Pathloss "from (1113.870000, 71.910000, 0) to (1215.180000, 24.990000, 0) unit=none" 0.082786154229117
scalar "Reception power" "from (1113.870000, 71.910000, 0) to (1215.180000, 24.990000, 0) unit=dBm" 3.1796005415359
scalar Pathloss "from (1113.870000, 71.910000, 0) to (1011.050000, 14.870000, 0) unit=none" 0.077490231913535
scalar "Reception power" "from (1113.870000, 71.910000, 0) to (1011.050000, 14.870000, 0) unit=dBm" 2.8924930658372
scalar Pathloss "from (1113.870000, 71.910000, 0) to (1000.000000, 7.270000, 0) unit=none" 0.13923718092983
scalar "Reception power" "from (1113.870000, 71.910000, 0) to (1000.000000, 7.270000, 0) unit=dBm" 5.4375756767168
scalar Pathloss "from (1113.870000, 71.910000, 0) to (1228.890000, 8.470000, 0) unit=none" 0.14202753530561
scalar "Reception power" "from (1113.870000, 71.910000, 0) to (1228.890000, 8.470000, 0) unit=dBm" 5.5237489645185
scalar Pathloss "from (1113.870000, 71.910000, 0) to (1235.930000, 0.000000, 0) unit=none" 0.1797943641528
scalar "Reception power" "from (1113.870000, 71.910000, 0) to (1235.930000, 0.000000, 0) unit=dBm" 6.5477842011216
scalar Pathloss "from (1113.870000, 71.910000, 0) to (250.000000, 150.000000, 0) unit=none" 0.00015290438634048
scalar "Reception power" "from (1113.870000, 71.910000, 0) to (250.000000, 150.000000, 0) unit=dBm" -24.155777099538
scalar Pathloss "from (1165.590000, 60.330000, 0) to (1150.810000, 63.640000, 0) unit=none" 0.83905179475735
scalar "Reception power" "from (1165.590000, 60.330000, 0) to (1150.810000, 63.640000, 0) unit=dBm" 13.237911166291
scalar Pathloss "from (1165.590000, 60.330000, 0) to (1141.650000, 65.690000, 0) unit=none" 0.13999208681732
scalar "Reception power" "from (1165.590000, 60.330000, 0) to (1141.650000, 65.690000, 0) unit=dBm" 5.461058334012
scalar Pathloss "from (1165.590000, 60.330000, 0) to (1190.440000, 54.770000, 0) unit=none" 0.11423132806256
scalar "Reception power" "from (1165.590000, 60.330000, 0) to (1190.440000, 54.770000, 0) unit=dBm" 4.5778757189428
scalar Pathloss "from (1165.590000, 60.330000, 0) to (1194.430000, 49.970000, 0) unit=none" 0.039572856542569
scalar "Reception power" "from (1165.590000, 60.330000, 0) to (1194.430000, 49.970000, 0) unit=dBm" -0.026002533915937
scalar Pathloss "from (1165.590000, 60.330000, 0) to (1208.170000, 33.430000, 0) unit=none" 0.024212100731508
scalar "Reception power" "from (1165.590000, 60.330000, 0) to (1208.170000, 33.430000, 0) unit=dBm" -2.1596518199827
scalar Pathloss "from (1165.590000, 60.330000, 0) to (1137.760000, 102.530000, 0) unit=none" 0.024055222232339
scalar "Reception power" "from (1165.590000, 60.330000, 0) to (1137.760000, 102.530000, 0) unit=dBm" -2.1878828061842
scalar Pathloss "from (1165.590000, 60.330000, 0) to (1113.870000, 71.910000, 0) unit=none" 0.021260227113558
scalar "Reception power" "from (1165.590000, 60.330000, 0) to (1113.870000, 71.910000, 0) unit=dBm" -2.7242975448505
scalar Pathloss "from (1165.590000, 60.330000, 0) to (1116.970000, 88.170000, 0) unit=none" 0.016614626955988
scalar "Reception power" "from (1165.590000, 60.330000, 0) to (1116.970000, 88.170000, 0) unit=dBm" -3.7950705945188
scalar Pathloss "from (1165.590000, 60.330000, 0) to (1157.260000, 116.600000, 0) unit=none" 0.015229665478961
scalar "Reception power" "from (1165.590000, 60.330000, 0) to (1157.260000, 116.600000, 0) unit=dBm" -4.1730728995051
scalar Pathloss "from (1165.590000, 60.330000, 0) to (1215.180000, 24.990000, 0) unit=none" 0.0094830610818506
scalar "Reception power" "from (1165.590000, 60.330000, 0) to (1215.180000, 24.990000, 0) unit=dBm" -6.2304910614644
scalar Pathloss "from (1165.590000, 60.330000, 0) to (1098.410000, 75.370000, 0) unit=none" 0.0064843864779196
scalar "Reception power" "from (1165.590000, 60.330000, 0) to (1098.410000, 75.370000, 0) unit=dBm" -7.8812876260471
scalar Pathloss "from (1165.590000, 60.330000, 0) to (1094.300000, 72.490000, 0) unit=none" 0.010198550344888
scalar "Reception power" "from (1165.590000, 60.330000, 0) to (1094.300000, 72.490000, 0) unit=dBm" -5.9145920995314
scalar Pathloss "from (1165.590000, 60.330000, 0) to (1228.890000, 8.470000, 0) unit=none" 0.046247644821827
scalar "Reception power" "from (1165.590000, 60.330000, 0) to (1228.890000, 8.470000, 0) unit=dBm" 0.6509196696132
scalar Pathloss "from (1165.590000, 60.330000, 0) to (1151.280000, 146.030000, 0) unit=none" 0.078524906138219
scalar "Reception power" "from (1165.590000, 60.330000, 0) to (1151.280000, 146.030000, 0) unit=dBm" 2.950097718813
scalar Pathloss "from (1165.590000, 60.330000, 0) to (1235.930000, 0.000000, 0) unit=none" 0.10956486556474
scalar "Reception power" "from (1165.590000, 60.330000, 0) to (1235.930000, 0.000000, 0) unit=dBm" 4.3967365611992
scalar Pathloss "from (1165.590000, 60.330000, 0) to (1072.720000, 75.060000, 0) unit=none" 0.1140318140694
scalar "Reception power" "from (1165.590000, 60.330000, 0) to (1072.720000, 75.060000, 0) unit=dBm" 4.5702837925769
scalar Pathloss "from (1165.590000, 60.330000, 0) to (1069.010000, 54.770000, 0) unit=none" 0.11873423531694
[...]
attr unit pk
scalar Wireless3.host[26].LoRaNic.queue queueBitLength:last 0
attr autoWarmupFilter false
attr interpolationmode sample-hold
attr recordingmode last
attr source "warmup(atomic(constant0(packetPushEnded) + sum(packetLength(packetPushStarted)) - sum(packetLength(packetPulled)) - sum(packetLength(packetRemoved)) - sum(packetLength(packetDropped))))"
attr title "queue bit length, last"
attr unit b
scalar Wireless3.host[26].LoRaNic.queue queueBitLength:max 0
attr autoWarmupFilter false
attr interpolationmode sample-hold
attr recordingmode max
attr source "warmup(atomic(constant0(packetPushEnded) + sum(packetLength(packetPushStarted)) - sum(packetLength(packetPulled)) - sum(packetLength(packetRemoved)) - sum(packetLength(packetDropped))))"
attr title "queue bit length, max"
attr unit b
scalar Wireless3.host[26].LoRaNic.queue queueBitLength:timeavg 0
attr autoWarmupFilter false
attr interpolationmode sample-hold
attr recordingmode timeavg
attr source "warmup(atomic(constant0(packetPushEnded) + sum(packetLength(packetPushStarted)) - sum(packetLength(packetPulled)) - sum(packetLength(packetRemoved)) - sum(packetLength(packetDropped))))"
attr title "queue bit length, timeavg"
attr unit b
statistic Wireless3.host[26].LoRaNic.queue queueingTime:histogram
field count 6
field mean 0
field stddev 0
field min 0
field max 0
field sum 0
field sqrsum 0
attr interpolationmode none
attr recordingmode histogram
attr source queueingTime(packetPulled)
attr title "queueing times"
attr unit s
bin	-inf	0
bin	-0.5	0
bin	-0.48	0
bin	-0.46	0
bin	-0.44	0
bin	-0.42	0
bin	-0.4	0
bin	-0.38	0
bin	-0.36	0
bin	-0.34	0
bin	-0.32	0
bin	-0.3	0
bin	-0.28	0
bin	-0.26	0
bin	-0.24	0
bin	-0.22	0
bin	-0.2	0
bin	-0.18	0
bin	-0.16	0
bin	-0.14	0
bin	-0.12	0
bin	-0.1	0
bin	-0.08	0
bin	-0.06	0
bin	-0.04	0
bin	-0.02	0
bin	0	6
bin	0.02	0
bin	0.04	0
bin	0.06	0
bin	0.08	0
bin	0.1	0
bin	0.12	0
bin	0.14	0
bin	0.16	0
bin	0.18	0
bin	0.2	0
bin	0.22	0
bin	0.24	0
bin	0.26	0
bin	0.28	0
bin	0.3	0
bin	0.32	0
bin	0.34	0
bin	0.36	0
bin	0.38	0
bin	0.4	0
bin	0.42	0
bin	0.44	0
bin	0.46	0
bin	0.48	0
bin	0.5	0
scalar Wireless3.host[26].LoRaNic.queue outgoingPackets:count 6
attr recordingmode count
attr source packetPulled
attr title "outgoing packets, count"
attr unit pk
scalar Wireless3.host[26].LoRaNic.queue outgoingPacketLengths:sum 480
attr interpolationmode none
attr recordingmode sum
attr source packetLength(packetPulled)
attr title "outgoing packet lengths, sum"
attr unit b
statistic Wireless3.host[26].LoRaNic.queue outgoingPacketLengths:histogram
field count 6
field mean 80
field stddev 0
field min 80
field max 80
field sum 480
field sqrsum 38400
attr interpolationmode none
attr recordingmode histogram
attr source packetLength(packetPulled)
attr title "outgoing packet lengths"
attr unit b
bin	-inf	0
bin	79	0
bin	80	6
bin	81	0
statistic Wireless3.host[26].LoRaNic.queue flowQueueingTime:histogram
field count 0
field mean nan
field stddev nan
field min nan
field max nan
field sum 0
field sqrsum 0
attr interpolationmode none
attr recordingmode histogram
attr source queueingTime(demuxFlow(packetPulled))
attr title "flow queueing times"
attr unit s
bin	-inf	0
bin	0	0
bin	1	0
scalar Wireless3.host[26].LoRaNic.queue incomingPackets:count 6
attr recordingmode count
attr source packetPushStarted
attr title "incoming packets, count"
attr unit pk
scalar Wireless3.host[26].LoRaNic.queue incomingPacketLengths:sum 480
attr interpolationmode none
attr recordingmode sum
attr source packetLength(packetPushStarted)
attr title "incoming packet lengths, sum"
attr unit b
statistic Wireless3.host[26].LoRaNic.queue incomingPacketLengths:histogram
field count 6
field mean 80
field stddev 0
field min 80
field max 80
field sum 480
field sqrsum 38400
attr interpolationmode none
attr recordingmode histogram
attr source packetLength(packetPushStarted)
attr title "incoming packet lengths"
attr unit b
bin	-inf	0
bin	79	0
bin	80	6
bin	81	0
scalar Wireless3.host[26].LoRaNic.queue droppedPacketsQueueOverflow:count 0
attr interpolationmode none
attr recordingmode count
attr source packetDropReasonIsQueueOverflow(packetDropped)
attr title "dropped packets: queue overflow, count"
attr unit pk
scalar Wireless3.host[26].LoRaNic.queue droppedPacketLengthsQueueOverflow:sum 0
attr interpolationmode none
attr recordingmode sum
attr source packetLength(packetDropReasonIsQueueOverflow(packetDropped))
attr title "dropped packet lengths: queue overflow, sum"
attr unit b
par Wireless3.host[26].LoRaNic.mac typename "\"flora.LoRa.LoRaMac\""
par Wireless3.host[26].LoRaNic.mac interfaceTableModule "\"Wireless3.host[26].interfaceTable\""
par Wireless3.host[26].LoRaNic.mac radioModule "\"^.radio\""
par Wireless3.host[26].LoRaNic.mac address "\"0A-AA-00-00-00-1C\""
attr mutable ""
par Wireless3.host[26].LoRaNic.mac fcsMode "\"declared\""
attr enum declared,computed
par Wireless3.host[26].LoRaNic.mac useAck true
par Wireless3.host[26].LoRaNic.mac bitrate 250bps
attr unit bps
par Wireless3.host[26].LoRaNic.mac headerLength 17B
attr unit B
par Wireless3.host[26].LoRaNic.mac ackLength 14B
attr unit B
par Wireless3.host[26].LoRaNic.mac sifsTime 1e-05s
attr unit s
par Wireless3.host[26].LoRaNic.mac slotTime 2e-05s
attr unit s
par Wireless3.host[26].LoRaNic.mac difsTime 5e-05s
attr unit s
par Wireless3.host[26].LoRaNic.mac ackTimeout 0.44803s
attr unit s
par Wireless3.host[26].LoRaNic.mac mtu 1500
par Wireless3.host[26].LoRaNic.mac cwMin 31
par Wireless3.host[26].LoRaNic.mac cwMax 1023
par Wireless3.host[26].LoRaNic.mac cwMulticast 31
par Wireless3.host[26].LoRaNic.mac retryLimit 7
scalar Wireless3.host[26].LoRaNic.mac numRetry 0
scalar Wireless3.host[26].LoRaNic.mac numSentWithoutRetry 0
scalar Wireless3.host[26].LoRaNic.mac numGivenUp 0
scalar Wireless3.host[26].LoRaNic.mac numSent 6
scalar Wireless3.host[26].LoRaNic.mac numReceived 0
scalar Wireless3.host[26].LoRaNic.mac numSentBroadcast 0
scalar Wireless3.host[26].LoRaNic.mac numReceivedBroadcast 0
scalar Wireless3.host[26].LoRaNic.mac packetDropIncorrectlyReceived:count 0
attr interpolationmode none
attr recordingmode count
attr source packetDropReasonIsIncorrectlyReceived(packetDropped)
attr title "packet drop: incorrectly received, count"
scalar Wireless3.host[26].LoRaNic.mac packetDropIncorrectlyReceived:sum(packetBytes) 0
attr interpolationmode none
attr recordingmode sum(packetBytes)
attr source packetDropReasonIsIncorrectlyReceived(packetDropped)
attr title "packet drop: incorrectly received, sum(packetBytes)"
scalar Wireless3.host[26].LoRaNic.mac packetDropNotAddressedToUs:count 0
attr interpolationmode none
attr recordingmode count
attr source packetDropReasonIsNotAddressedToUs(packetDropped)
attr title "packet drop: not addressed to us, count"
scalar Wireless3.host[26].LoRaNic.mac packetDropNotAddressedToUs:sum(packetBytes) 0
attr interpolationmode none
attr recordingmode sum(packetBytes)
attr source packetDropReasonIsNotAddressedToUs(packetDropped)
attr title "packet drop: not addressed to us, sum(packetBytes)"
scalar Wireless3.host[26].LoRaNic.mac packetDropQueueOverflow:count 0
attr interpolationmode none
attr recordingmode count
attr source packetDropReasonIsQueueOverflow(packetDropped)
attr title "packet drop: queue overflow, count"
scalar Wireless3.host[26].LoRaNic.mac packetDropQueueOverflow:sum(packetBytes) 0
attr interpolationmode none
attr recordingmode sum(packetBytes)
attr source packetDropReasonIsQueueOverflow(packetDropped)
attr title "packet drop: queue overflow, sum(packetBytes)"
scalar Wireless3.host[26].LoRaNic.mac packetDropRetryLimitReached:count 0
attr interpolationmode none
attr recordingmode count
attr source packetDropReasonIsRetryLimitReached(packetDropped)
attr title "packet drop: retry limit reached, count"
scalar Wireless3.host[26].LoRaNic.mac packetDropRetryLimitReached:sum(packetBytes) 0
attr interpolationmode none
attr recordingmode sum(packetBytes)
attr source packetDropReasonIsRetryLimitReached(packetDropped)
attr title "packet drop: retry limit reached, sum(packetBytes)"
scalar Wireless3.host[26].LoRaNic.mac linkBroken:count 0
attr interpolationmode none
attr recordingmode count
attr source linkBroken
attr title "link break, count"
par Wireless3.host[26].LoRaNic.radio.antenna typename "\"inet.physicallayer.wireless.common.antenna.IsotropicAntenna\""
par Wireless3.host[26].LoRaNic.radio.antenna mobilityModule "\"^.^.^.mobility\""
par Wireless3.host[26].LoRaNic.radio.antenna numAntennas 1
par Wireless3.host[26].LoRaNic.radio.transmitter typename "\"flora.LoRaPhy.LoRaTransmitter\""
par Wireless3.host[26].LoRaNic.radio.transmitter preambleDuration 0.001s
attr unit s
par Wireless3.host[26].LoRaNic.radio.transmitter headerLength 0b
attr unit b
par Wireless3.host[26].LoRaNic.radio.transmitter bitrate 250000bps
attr unit bps
par Wireless3.host[26].LoRaNic.radio.transmitter power 0.025118W
attr unit W
par Wireless3.host[26].LoRaNic.radio.transmitter centerFrequency 8.68e+08Hz
attr unit Hz
par Wireless3.host[26].LoRaNic.radio.transmitter bandwidth 250000Hz
attr unit Hz
par Wireless3.host[26].LoRaNic.radio.transmitter modulation "\"LoRaModulation\""
scalar Wireless3.host[26].LoRaNic.radio.transmitter LoRaTransmissionCreated:count 6
attr recordingmode count
attr source LoRaTransmissionCreated
par Wireless3.host[26].LoRaNic.radio.receiver typename "\"flora.LoRaPhy.LoRaReceiver\""
par Wireless3.host[26].LoRaNic.radio.receiver snirThreshold -8dB
attr unit dB
par Wireless3.host[26].LoRaNic.radio.receiver snirThresholdMode "\"min\""
attr unit min,mean
par Wireless3.host[26].LoRaNic.radio.receiver energyDetection -117dBm
attr unit dBm
par Wireless3.host[26].LoRaNic.radio.receiver sensitivity -117dBm
attr unit dBm
par Wireless3.host[26].LoRaNic.radio.receiver centerFrequency 8.68e+08Hz
attr unit Hz
par Wireless3.host[26].LoRaNic.radio.receiver bandwidth 250000Hz
attr unit Hz
par Wireless3.host[26].LoRaNic.radio.receiver modulation "\"BPSK\""
par Wireless3.host[26].LoRaNic.radio.receiver alohaChannelModel false
scalar Wireless3.host[26].LoRaNic.radio.receiver numCollisions 0
scalar Wireless3.host[26].LoRaNic.radio.receiver rcvBelowSensitivity 0
scalar Wireless3.host[26].LoRaNic.radio.receiver LoRaReceptionCollision:count 0
attr recordingmode count
attr source LoRaReceptionCollision
par Wireless3.host[26].LoRaNic.radio.IdealEpEnergyStorage typename "\"inet.power.storage.IdealEpEnergyStorage\""
scalar Wireless3.host[26].LoRaNic.radio.IdealEpEnergyStorage residualEnergyCapacity:last nan
attr interpolationmode linear
attr recordingmode last
attr source residualEnergyCapacityChanged
attr title "Residual energy capacity, last"
par Wireless3.host[26].LoRaNic.radio typename "\"flora.LoRa.LoRaRadio\""
par Wireless3.host[26].LoRaNic.radio radioMediumModule "\"radioMedium\""
par Wireless3.host[26].LoRaNic.radio energySourceModule "\"\""
par Wireless3.host[26].LoRaNic.radio initialRadioMode "\"off\""
attr enum off,sleep,receiver,transmitter,transceiver
par Wireless3.host[26].LoRaNic.radio switchingTimes "\"ms 0 0 0 0 0 0 0 0 0 0 0 0 0 0 0 0 0 0 0 0 0 0 0 0 0\""
par Wireless3.host[26].LoRaNic.radio sendRawBytes false
par Wireless3.host[26].LoRaNic.radio separateTransmissionParts false
par Wireless3.host[26].LoRaNic.radio separateReceptionParts false
par Wireless3.host[26].LoRaNic.radio displayCommunicationRange false
par Wireless3.host[26].LoRaNic.radio displayInterferenceRange false
par Wireless3.host[26].LoRaNic.radio centerFrequency 8.68e+08Hz
attr unit Hz
par Wireless3.host[26].LoRaNic.radio bandwidth 250000Hz
attr unit Hz
par Wireless3.host[26].LoRaNic.radio iAmGateway false
statistic Wireless3.host[26].LoRaNic.radio minSnir:histogram
field count 1
field mean 4732846651543.1
field stddev nan
field min 4732846651543.1
field max 4732846651543.1
field sum 4732846651543.1
field sqrsum 2.2399837427023e+25
attr recordingmode histogram
attr source minimumSnir(packetSentToUpper)
attr title "Min SNIR"
bin	-inf	0
bin	4732846651542.58	0
bin	4732846651542.6	0
bin	4732846651542.62	0
bin	4732846651542.64	0
bin	4732846651542.66	0
bin	4732846651542.68	0
bin	4732846651542.7	0
bin	4732846651542.72	0
bin	4732846651542.74	0
bin	4732846651542.76	0
bin	4732846651542.78	0
bin	4732846651542.8	0
bin	4732846651542.82	0
bin	4732846651542.84	0
bin	4732846651542.86	0
bin	4732846651542.88	0
bin	4732846651542.9	0
bin	4732846651542.92	0
bin	4732846651542.94	0
bin	4732846651542.96	0
bin	4732846651542.98	0
bin	4732846651543	0
bin	4732846651543.021	0
bin	4732846651543.04	0
bin	4732846651543.061	0
bin	4732846651543.08	1
bin	4732846651543.1	0
bin	4732846651543.12	0
bin	4732846651543.14	0
bin	4732846651543.16	0
bin	4732846651543.18	0
bin	4732846651543.2	0
bin	4732846651543.22	0
bin	4732846651543.24	0
bin	4732846651543.26	0
bin	4732846651543.28	0
bin	4732846651543.3	0
bin	4732846651543.32	0
bin	4732846651543.34	0
bin	4732846651543.36	0
bin	4732846651543.38	0
bin	4732846651543.4	0
bin	4732846651543.42	0
bin	4732846651543.44	0
bin	4732846651543.46	0
bin	4732846651543.48	0
bin	4732846651543.5	0
bin	4732846651543.521	0
bin	4732846651543.54	0
bin	4732846651543.561	0
bin	4732846651543.58	0
bin	4732846651543.6	0
bin	4732846651543.62	0
statistic Wireless3.host[26].LoRaNic.radio packetErrorRate:histogram
field count 1
field mean 0
field stddev nan
field min 0
field max 0
field sum 0
field sqrsum 0
attr recordingmode histogram
attr source packetErrorRate(packetSentToUpper)
attr title "Packet error rate"
bin	-inf	0
bin	-0.5	0
bin	-0.48	0
bin	-0.46	0
bin	-0.44	0
bin	-0.42	0
bin	-0.4	0
bin	-0.38	0
bin	-0.36	0
bin	-0.34	0
bin	-0.32	0
bin	-0.3	0
bin	-0.28	0
bin	-0.26	0
bin	-0.24	0
bin	-0.22	0
bin	-0.2	0
bin	-0.18	0
bin	-0.16	0
bin	-0.14	0
bin	-0.12	0
bin	-0.1	0
bin	-0.08	0
bin	-0.06	0
bin	-0.04	0
bin	-0.02	0
bin	0	1
bin	0.02	0
bin	0.04	0
bin	0.06	0
bin	0.08	0
bin	0.1	0
bin	0.12	0
bin	0.14	0
bin	0.16	0
bin	0.18	0
bin	0.2	0
bin	0.22	0
bin	0.24	0
bin	0.26	0
bin	0.28	0
bin	0.3	0
bin	0.32	0
bin	0.34	0
bin	0.36	0
bin	0.38	0
bin	0.4	0
bin	0.42	0
bin	0.44	0
bin	0.46	0
bin	0.48	0
bin	0.5	0
statistic Wireless3.host[26].LoRaNic.radio bitErrorRate:histogram
field count 1
field mean 0
field stddev nan
field min 0
field max 0
field sum 0
field sqrsum 0
attr recordingmode histogram
attr source bitErrorRate(packetSentToUpper)
attr title "Bit error rate"
bin	-inf	0
bin	-0.5	0
bin	-0.48	0
bin	-0.46	0
bin	-0.44	0
bin	-0.42	0
bin	-0.4	0
bin	-0.38	0
bin	-0.36	0
bin	-0.34	0
bin	-0.32	0
bin	-0.3	0
bin	-0.28	0
bin	-0.26	0
bin	-0.24	0
bin	-0.22	0
bin	-0.2	0
bin	-0.18	0
bin	-0.16	0
bin	-0.14	0
bin	-0.12	0
bin	-0.1	0
bin	-0.08	0
bin	-0.06	0
bin	-0.04	0
bin	-0.02	0
bin	0	1
bin	0.02	0
bin	0.04	0
bin	0.06	0
bin	0.08	0
bin	0.1	0
bin	0.12	0
bin	0.14	0
bin	0.16	0
bin	0.18	0
bin	0.2	0
bin	0.22	0
bin	0.24	0
bin	0.26	0
bin	0.28	0
bin	0.3	0
bin	0.32	0
bin	0.34	0
bin	0.36	0
bin	0.38	0
bin	0.4	0
bin	0.42	0
bin	0.44	0
bin	0.46	0
bin	0.48	0
bin	0.5	0
statistic Wireless3.host[26].LoRaNic.radio symbolErrorRate:histogram
field count 1
field mean 0
field stddev nan
field min 0
field max 0
field sum 0
field sqrsum 0
attr recordingmode histogram
attr source symbolErrorRate(packetSentToUpper)
attr title "Symbol error rate"
bin	-inf	0
bin	-0.5	0
bin	-0.48	0
bin	-0.46	0
bin	-0.44	0
bin	-0.42	0
bin	-0.4	0
bin	-0.38	0
bin	-0.36	0
bin	-0.34	0
bin	-0.32	0
bin	-0.3	0
bin	-0.28	0
bin	-0.26	0
bin	-0.24	0
bin	-0.22	0
bin	-0.2	0
bin	-0.18	0
bin	-0.16	0
bin	-0.14	0
bin	-0.12	0
bin	-0.1	0
bin	-0.08	0
bin	-0.06	0
bin	-0.04	0
bin	-0.02	0
bin	0	1
bin	0.02	0
bin	0.04	0
bin	0.06	0
bin	0.08	0
bin	0.1	0
bin	0.12	0
bin	0.14	0
bin	0.16	0
bin	0.18	0
bin	0.2	0
bin	0.22	0
bin	0.24	0
bin	0.26	0
bin	0.28	0
bin	0.3	0
bin	0.32	0
bin	0.34	0
bin	0.36	0
bin	0.38	0
bin	0.4	0
bin	0.42	0
bin	0.44	0
bin	0.46	0
bin	0.48	0
bin	0.5	0
scalar Wireless3.host[26].LoRaNic.radio transmissionState:count 24
attr interpolationmode sample-hold
attr recordingmode count
attr source transmissionStateChanged
attr title "Radio transmission state, count"
scalar Wireless3.host[26].LoRaNic.radio receptionState:count 28
attr interpolationmode sample-hold
attr recordingmode count
attr source receptionStateChanged
attr title "Radio reception state, count"
scalar Wireless3.host[26].LoRaNic.radio radioMode:count 41
attr interpolationmode sample-hold
attr recordingmode count
attr source radioModeChanged
attr title "Radio mode, count"
par Wireless3.host[26].LoRaNic typename "\"flora.LoRa.LoRaNic\""
par Wireless3.host[26].LoRaNic displayStringTextFormat "\"%a (%i)\\n%m\""
par Wireless3.host[26].LoRaNic recordPcap false
par Wireless3.host[26].LoRaNic numPcapRecorders 0
par Wireless3.host[26].LoRaNic interfaceTableModule "\"Wireless3.host[26].interfaceTable\""
par Wireless3.host[26].LoRaNic energySourceModule "\"\""
par Wireless3.host[26].LoRaNic protocol "\"\""
scalar Wireless3.host[26].LoRaNic packetDropInterfaceDown:count 0
attr interpolationmode none
attr recordingmode count
attr source packetDropReasonIsInterfaceDown(packetDropped)
attr title "packet drops: interface down, count"
scalar Wireless3.host[26].LoRaNic packetDropInterfaceDown:sum(packetBytes) 0
attr interpolationmode none
attr recordingmode sum(packetBytes)
attr source packetDropReasonIsInterfaceDown(packetDropped)
attr title "packet drops: interface down, sum(packetBytes)"
scalar Wireless3.host[26].LoRaNic packetDropNoCarrier:count 0
attr interpolationmode none
attr recordingmode count
attr source packetDropReasonIsNoCarrier(packetDropped)
attr title "packet drops: no carrier, count"
scalar Wireless3.host[26].LoRaNic packetDropNoCarrier:sum(packetBytes) 0
attr interpolationmode none
attr recordingmode sum(packetBytes)
attr source packetDropReasonIsNoCarrier(packetDropped)
attr title "packet drops: no carrier, sum(packetBytes)"
par Wireless3.host[26].app[0] typename "\"flora.LoRaApp.SimpleLoRaApp\""
par Wireless3.host[26].app[0] numberOfPacketsToSend 0
par Wireless3.host[26].app[0] timeToFirstPacket exponential(5s)
attr unit s
par Wireless3.host[26].app[0] timeToNextPacket exponential(10s)
attr unit s
par Wireless3.host[26].app[0] initialLoRaTP 14dBm
attr unit dBm
par Wireless3.host[26].app[0] initialLoRaCF 9.15e+08Hz
attr unit Hz
par Wireless3.host[26].app[0] initialLoRaSF 11
par Wireless3.host[26].app[0] initialLoRaBW 125000Hz
attr unit Hz
par Wireless3.host[26].app[0] initialLoRaCR 4
par Wireless3.host[26].app[0] initialUseHeader true
par Wireless3.host[26].app[0] evaluateADRinNode false
par Wireless3.host[26].app[0] dataSize 10B
attr unit B
par Wireless3.host[26].app[0] destNodeIds "\"-1\""
par Wireless3.host[26].app[0] srcNodeId 26
par Wireless3.host[26].app[0] nextHopId -1
scalar Wireless3.host[26].app[0] positionX 1151.28
scalar Wireless3.host[26].app[0] positionY 146.03
scalar Wireless3.host[26].app[0] finalTP 14
scalar Wireless3.host[26].app[0] finalSF 11
scalar Wireless3.host[26].app[0] sentPackets 6
scalar Wireless3.host[26].app[0] receivedADRCommands 0
scalar Wireless3.host[26].app[0] LoRa_AppPacketSent:count 6
attr recordingmode count
attr source LoRa_AppPacketSent
par Wireless3.host[26] typename "\"flora.LoraNode.LoRaNode\""
par Wireless3.host[26] numApps 1
par Wireless3.host[26] deploymentType "\"\""
par Wireless3.host[26] maxGatewayDistance 2000
par Wireless3.host[26] gatewayX 250
par Wireless3.host[26] gatewayY 150
par Wireless3 typename "\"wireless3.simulations.Wireless3\""
par Wireless3 numHost 27
par Wireless3 width 1235.93m
attr unit m
par Wireless3 height 1007.27m
attr unit m

